**EXAMPLE FILE**
**@STRING@TEMPLATE='1BRICK'
**TIME STEPS FOR ELEMENTS AND STEPS
*NODE,NSET = ALLNODES
1	,-2.798317936051702e-20	,0.000457	,0.0 
2	,0.0	,0.0	,0.0 
3	,2.798317936051702e-20	,-0.000457	,0.0 
4	,-2.798317936051702e-20	,0.000457	,0.000127 
5	,2.798317936051702e-20	,-0.000457	,0.000127 
6	,-2.798317936051702e-20	,0.000457	,0.000254 
7	,0.0	,0.0	,0.000254 
8	,2.798317936051702e-20	,-0.000457	,0.000254 
9	,0.0009140000000000015	,0.000457	,0.0 
10	,0.0009140000000000015	,0.0	,0.0 
11	,0.0009140000000000015	,-0.000457	,0.0 
12	,0.0009140000000000015	,0.000457	,0.000127 
13	,0.0009140000000000015	,-0.000457	,0.000127 
14	,0.0009140000000000015	,0.000457	,0.000254 
15	,0.0009140000000000015	,0.0	,0.000254 
16	,0.0009140000000000015	,-0.000457	,0.000254 
17	,0.0004570000000000007	,0.000457	,0.0 
18	,0.0004570000000000008	,-0.000457	,0.0 
19	,0.0004570000000000007	,0.000457	,0.000254 
20	,0.0004570000000000008	,-0.000457	,0.000254 
** ... 659 like lines cut

*NSET, NSET = BUILD_PLATE
1,
2,
3,
9,
10,
11,
17,
18,
21,
22,
23,
29,
30,
33,
34,
35,
41,
42,
45,
46,
** ... 113 like lines cut
*ELEMENT,ELSET = ALLELEMENTS, TYPE = C3D20
1,6,8,3,1,14,16,11,9,7,5,2,4,15,13,10,12,19,20,18,17
2,14,16,11,9,26,28,23,21,15,13,10,12,27,25,22,24,31,32,30,29
3,26,28,23,21,38,40,35,33,27,25,22,24,39,37,34,36,43,44,42,41
4,38,40,35,33,50,52,47,45,39,37,34,36,51,49,46,48,55,56,54,53
5,50,52,47,45,62,64,59,57,51,49,46,48,63,61,58,60,67,68,66,65
6,62,64,59,57,74,76,71,69,63,61,58,60,75,73,70,72,79,80,78,77
7,74,88,83,69,62,96,91,57,87,85,82,72,95,93,90,60,79,100,98,77
8,62,96,91,57,50,108,103,45,95,93,90,60,107,105,102,48,67,112,110,65
9,50,108,103,45,38,120,115,33,107,105,102,48,119,117,114,36,55,124,122,53
10,38,120,115,33,26,132,127,21,119,117,114,36,131,129,126,24,43,136,134,41
11,26,132,127,21,14,144,139,9,131,129,126,24,143,141,138,12,31,148,146,29
12,14,144,139,9,6,156,151,1,143,141,138,12,155,153,150,4,19,160,158,17
13,166,156,151,161,174,144,139,169,167,153,162,164,175,141,170,172,179,160,158,177
14,174,144,139,169,186,132,127,181,175,141,170,172,187,129,182,184,191,148,146,189
15,186,132,127,181,198,120,115,193,187,129,182,184,199,117,194,196,203,136,134,201
16,198,120,115,193,210,108,103,205,199,117,194,196,211,105,206,208,215,124,122,213
17,210,108,103,205,222,96,91,217,211,105,206,208,223,93,218,220,227,112,110,225
18,222,96,91,217,234,88,83,229,223,93,218,220,235,85,230,232,239,100,98,237
19,234,248,243,229,222,256,251,217,247,245,242,232,255,253,250,220,239,260,258,237
20,222,256,251,217,210,268,263,205,255,253,250,220,267,265,262,208,227,272,270,225
** ... 88 like lines cut
**ELEMENTS BY DEPOSISTION STEP
*ELSET, ELSET = E_STEP_1
1
*ELSET, ELSET = E_STEP_2
2
*ELSET, ELSET = E_STEP_3
3
*ELSET, ELSET = E_STEP_4
4
*ELSET, ELSET = E_STEP_5
5
*ELSET, ELSET = E_STEP_6
6
*ELSET, ELSET = E_STEP_8
7
*ELSET, ELSET = E_STEP_9
8
*ELSET, ELSET = E_STEP_10
9
*ELSET, ELSET = E_STEP_11
10
*ELSET, ELSET = E_STEP_12
11
*ELSET, ELSET = E_STEP_13
12
*ELSET, ELSET = E_STEP_15
13
*ELSET, ELSET = E_STEP_16
14
*ELSET, ELSET = E_STEP_17
15
*ELSET, ELSET = E_STEP_18
16
*ELSET, ELSET = E_STEP_19
17
*ELSET, ELSET = E_STEP_20
18
*ELSET, ELSET = E_STEP_22
19
*ELSET, ELSET = E_STEP_23
20
** ... 176 like lines cut
*SURFACE, NAME = UP_1, TYPE=ELEMENT
1, S3
*SURFACE, NAME = LEFT_1, TYPE=ELEMENT
1, S6
*SURFACE, NAME = RIGHT_1, TYPE=ELEMENT
1, S4
*SURFACE, NAME = UP_2, TYPE=ELEMENT
2, S3
*SURFACE, NAME = LEFT_2, TYPE=ELEMENT
2, S6
*SURFACE, NAME = RIGHT_2, TYPE=ELEMENT
2, S4
*SURFACE, NAME = UP_3, TYPE=ELEMENT
3, S3
*SURFACE, NAME = LEFT_3, TYPE=ELEMENT
3, S6
*SURFACE, NAME = RIGHT_3, TYPE=ELEMENT
3, S4
*SURFACE, NAME = UP_4, TYPE=ELEMENT
4, S3
*SURFACE, NAME = LEFT_4, TYPE=ELEMENT
4, S6
*SURFACE, NAME = RIGHT_4, TYPE=ELEMENT
4, S4
*SURFACE, NAME = UP_5, TYPE=ELEMENT
5, S3
*SURFACE, NAME = LEFT_5, TYPE=ELEMENT
5, S6
*SURFACE, NAME = RIGHT_5, TYPE=ELEMENT
5, S4
*SURFACE, NAME = UP_6, TYPE=ELEMENT
6, S3
*SURFACE, NAME = LEFT_6, TYPE=ELEMENT
6, S6
*SURFACE, NAME = RIGHT_6, TYPE=ELEMENT
6, S4
*SURFACE, NAME = UP_8, TYPE=ELEMENT
7, S3
*SURFACE, NAME = RIGHT_8, TYPE=ELEMENT
7, S4
*SURFACE, NAME = UP_9, TYPE=ELEMENT
8, S3
*SURFACE, NAME = RIGHT_9, TYPE=ELEMENT
8, S4
*SURFACE, NAME = UP_10, TYPE=ELEMENT
9, S3
*SURFACE, NAME = RIGHT_10, TYPE=ELEMENT
9, S4
*SURFACE, NAME = UP_11, TYPE=ELEMENT
10, S3
*SURFACE, NAME = RIGHT_11, TYPE=ELEMENT
10, S4
*SURFACE, NAME = UP_12, TYPE=ELEMENT
11, S3
*SURFACE, NAME = RIGHT_12, TYPE=ELEMENT
11, S4
*SURFACE, NAME = UP_13, TYPE=ELEMENT
12, S3
*SURFACE, NAME = RIGHT_13, TYPE=ELEMENT
12, S4
*SURFACE, NAME = UP_15, TYPE=ELEMENT
13, S3
*SURFACE, NAME = LEFT_15, TYPE=ELEMENT
13, S6
*SURFACE, NAME = UP_16, TYPE=ELEMENT
14, S3
*SURFACE, NAME = LEFT_16, TYPE=ELEMENT
14, S6
*SURFACE, NAME = UP_17, TYPE=ELEMENT
15, S3
*SURFACE, NAME = LEFT_17, TYPE=ELEMENT
15, S6
*SURFACE, NAME = UP_18, TYPE=ELEMENT
16, S3
*SURFACE, NAME = LEFT_18, TYPE=ELEMENT
16, S6
*SURFACE, NAME = UP_19, TYPE=ELEMENT
17, S3
*SURFACE, NAME = LEFT_19, TYPE=ELEMENT
17, S6
*SURFACE, NAME = UP_20, TYPE=ELEMENT
18, S3
*SURFACE, NAME = LEFT_20, TYPE=ELEMENT
18, S6
*SURFACE, NAME = UP_22, TYPE=ELEMENT
19, S3
*SURFACE, NAME = RIGHT_22, TYPE=ELEMENT
19, S4
*SURFACE, NAME = UP_23, TYPE=ELEMENT
20, S3
*SURFACE, NAME = RIGHT_23, TYPE=ELEMENT
20, S4
*SURFACE, NAME = UP_24, TYPE=ELEMENT
21, S3
*SURFACE, NAME = RIGHT_24, TYPE=ELEMENT
21, S4
*SURFACE, NAME = UP_25, TYPE=ELEMENT
22, S3
*SURFACE, NAME = RIGHT_25, TYPE=ELEMENT
22, S4
*SURFACE, NAME = UP_26, TYPE=ELEMENT
23, S3
*SURFACE, NAME = RIGHT_26, TYPE=ELEMENT
23, S4
*SURFACE, NAME = UP_27, TYPE=ELEMENT
24, S3
*SURFACE, NAME = RIGHT_27, TYPE=ELEMENT
24, S4
*SURFACE, NAME = UP_29, TYPE=ELEMENT
25, S3
*SURFACE, NAME = LEFT_29, TYPE=ELEMENT
25, S6
*SURFACE, NAME = UP_30, TYPE=ELEMENT
26, S3
*SURFACE, NAME = LEFT_30, TYPE=ELEMENT
26, S6
*SURFACE, NAME = UP_31, TYPE=ELEMENT
27, S3
*SURFACE, NAME = LEFT_31, TYPE=ELEMENT
27, S6
*SURFACE, NAME = UP_32, TYPE=ELEMENT
28, S3
*SURFACE, NAME = LEFT_32, TYPE=ELEMENT
28, S6
*SURFACE, NAME = UP_33, TYPE=ELEMENT
29, S3
*SURFACE, NAME = LEFT_33, TYPE=ELEMENT
29, S6
*SURFACE, NAME = UP_34, TYPE=ELEMENT
30, S3
*SURFACE, NAME = LEFT_34, TYPE=ELEMENT
30, S6
*SURFACE, NAME = UP_36, TYPE=ELEMENT
31, S3
*SURFACE, NAME = RIGHT_36, TYPE=ELEMENT
31, S4
*SURFACE, NAME = UP_37, TYPE=ELEMENT
32, S3
*SURFACE, NAME = RIGHT_37, TYPE=ELEMENT
32, S4
*SURFACE, NAME = UP_38, TYPE=ELEMENT
33, S3
*SURFACE, NAME = RIGHT_38, TYPE=ELEMENT
33, S4
*SURFACE, NAME = UP_39, TYPE=ELEMENT
34, S3
*SURFACE, NAME = RIGHT_39, TYPE=ELEMENT
34, S4
*SURFACE, NAME = UP_40, TYPE=ELEMENT
35, S3
*SURFACE, NAME = RIGHT_40, TYPE=ELEMENT
35, S4
*SURFACE, NAME = UP_41, TYPE=ELEMENT
36, S3
*SURFACE, NAME = RIGHT_41, TYPE=ELEMENT
36, S4
*SURFACE, NAME = UP_44, TYPE=ELEMENT
37, S3
*SURFACE, NAME = LEFT_44, TYPE=ELEMENT
37, S6
*SURFACE, NAME = RIGHT_44, TYPE=ELEMENT
37, S4
*SURFACE, NAME = UP_45, TYPE=ELEMENT
38, S3
*SURFACE, NAME = LEFT_45, TYPE=ELEMENT
38, S6
*SURFACE, NAME = RIGHT_45, TYPE=ELEMENT
38, S4
*SURFACE, NAME = UP_46, TYPE=ELEMENT
39, S3
*SURFACE, NAME = LEFT_46, TYPE=ELEMENT
39, S6
*SURFACE, NAME = RIGHT_46, TYPE=ELEMENT
39, S4
*SURFACE, NAME = UP_47, TYPE=ELEMENT
40, S3
*SURFACE, NAME = LEFT_47, TYPE=ELEMENT
40, S6
*SURFACE, NAME = RIGHT_47, TYPE=ELEMENT
40, S4
*SURFACE, NAME = UP_48, TYPE=ELEMENT
41, S3
*SURFACE, NAME = LEFT_48, TYPE=ELEMENT
41, S6
*SURFACE, NAME = RIGHT_48, TYPE=ELEMENT
41, S4
*SURFACE, NAME = UP_49, TYPE=ELEMENT
42, S3
*SURFACE, NAME = LEFT_49, TYPE=ELEMENT
42, S6
*SURFACE, NAME = RIGHT_49, TYPE=ELEMENT
42, S4
*SURFACE, NAME = UP_51, TYPE=ELEMENT
43, S3
*SURFACE, NAME = RIGHT_51, TYPE=ELEMENT
43, S4
*SURFACE, NAME = UP_52, TYPE=ELEMENT
44, S3
*SURFACE, NAME = RIGHT_52, TYPE=ELEMENT
44, S4
*SURFACE, NAME = UP_53, TYPE=ELEMENT
45, S3
*SURFACE, NAME = RIGHT_53, TYPE=ELEMENT
45, S4
*SURFACE, NAME = UP_54, TYPE=ELEMENT
46, S3
*SURFACE, NAME = RIGHT_54, TYPE=ELEMENT
46, S4
*SURFACE, NAME = UP_55, TYPE=ELEMENT
47, S3
*SURFACE, NAME = RIGHT_55, TYPE=ELEMENT
47, S4
*SURFACE, NAME = UP_56, TYPE=ELEMENT
48, S3
*SURFACE, NAME = RIGHT_56, TYPE=ELEMENT
48, S4
*SURFACE, NAME = UP_58, TYPE=ELEMENT
49, S3
*SURFACE, NAME = LEFT_58, TYPE=ELEMENT
49, S6
*SURFACE, NAME = UP_59, TYPE=ELEMENT
50, S3
*SURFACE, NAME = LEFT_59, TYPE=ELEMENT
50, S6
*SURFACE, NAME = UP_60, TYPE=ELEMENT
51, S3
*SURFACE, NAME = LEFT_60, TYPE=ELEMENT
51, S6
*SURFACE, NAME = UP_61, TYPE=ELEMENT
52, S3
*SURFACE, NAME = LEFT_61, TYPE=ELEMENT
52, S6
*SURFACE, NAME = UP_62, TYPE=ELEMENT
53, S3
*SURFACE, NAME = LEFT_62, TYPE=ELEMENT
53, S6
*SURFACE, NAME = UP_63, TYPE=ELEMENT
54, S3
*SURFACE, NAME = LEFT_63, TYPE=ELEMENT
54, S6
*SURFACE, NAME = UP_65, TYPE=ELEMENT
55, S3
*SURFACE, NAME = RIGHT_65, TYPE=ELEMENT
55, S4
*SURFACE, NAME = UP_66, TYPE=ELEMENT
56, S3
*SURFACE, NAME = RIGHT_66, TYPE=ELEMENT
56, S4
*SURFACE, NAME = UP_67, TYPE=ELEMENT
57, S3
*SURFACE, NAME = RIGHT_67, TYPE=ELEMENT
57, S4
*SURFACE, NAME = UP_68, TYPE=ELEMENT
58, S3
*SURFACE, NAME = RIGHT_68, TYPE=ELEMENT
58, S4
*SURFACE, NAME = UP_69, TYPE=ELEMENT
59, S3
*SURFACE, NAME = RIGHT_69, TYPE=ELEMENT
59, S4
*SURFACE, NAME = UP_70, TYPE=ELEMENT
60, S3
*SURFACE, NAME = RIGHT_70, TYPE=ELEMENT
60, S4
*SURFACE, NAME = UP_72, TYPE=ELEMENT
61, S3
*SURFACE, NAME = LEFT_72, TYPE=ELEMENT
61, S6
*SURFACE, NAME = UP_73, TYPE=ELEMENT
62, S3
*SURFACE, NAME = LEFT_73, TYPE=ELEMENT
62, S6
*SURFACE, NAME = UP_74, TYPE=ELEMENT
63, S3
*SURFACE, NAME = LEFT_74, TYPE=ELEMENT
63, S6
*SURFACE, NAME = UP_75, TYPE=ELEMENT
64, S3
*SURFACE, NAME = LEFT_75, TYPE=ELEMENT
64, S6
*SURFACE, NAME = UP_76, TYPE=ELEMENT
65, S3
*SURFACE, NAME = LEFT_76, TYPE=ELEMENT
65, S6
*SURFACE, NAME = UP_77, TYPE=ELEMENT
66, S3
*SURFACE, NAME = LEFT_77, TYPE=ELEMENT
66, S6
*SURFACE, NAME = UP_79, TYPE=ELEMENT
67, S3
*SURFACE, NAME = RIGHT_79, TYPE=ELEMENT
67, S4
*SURFACE, NAME = UP_80, TYPE=ELEMENT
68, S3
*SURFACE, NAME = RIGHT_80, TYPE=ELEMENT
68, S4
*SURFACE, NAME = UP_81, TYPE=ELEMENT
69, S3
*SURFACE, NAME = RIGHT_81, TYPE=ELEMENT
69, S4
*SURFACE, NAME = UP_82, TYPE=ELEMENT
70, S3
*SURFACE, NAME = RIGHT_82, TYPE=ELEMENT
70, S4
*SURFACE, NAME = UP_83, TYPE=ELEMENT
71, S3
*SURFACE, NAME = RIGHT_83, TYPE=ELEMENT
71, S4
*SURFACE, NAME = UP_84, TYPE=ELEMENT
72, S3
*SURFACE, NAME = RIGHT_84, TYPE=ELEMENT
72, S4
*SURFACE, NAME = UP_87, TYPE=ELEMENT
73, S3
*SURFACE, NAME = LEFT_87, TYPE=ELEMENT
73, S6
*SURFACE, NAME = RIGHT_87, TYPE=ELEMENT
73, S4
*SURFACE, NAME = UP_88, TYPE=ELEMENT
74, S3
*SURFACE, NAME = LEFT_88, TYPE=ELEMENT
74, S6
*SURFACE, NAME = RIGHT_88, TYPE=ELEMENT
74, S4
*SURFACE, NAME = UP_89, TYPE=ELEMENT
75, S3
*SURFACE, NAME = LEFT_89, TYPE=ELEMENT
75, S6
*SURFACE, NAME = RIGHT_89, TYPE=ELEMENT
75, S4
*SURFACE, NAME = UP_90, TYPE=ELEMENT
76, S3
*SURFACE, NAME = LEFT_90, TYPE=ELEMENT
76, S6
*SURFACE, NAME = RIGHT_90, TYPE=ELEMENT
76, S4
*SURFACE, NAME = UP_91, TYPE=ELEMENT
77, S3
*SURFACE, NAME = LEFT_91, TYPE=ELEMENT
77, S6
*SURFACE, NAME = RIGHT_91, TYPE=ELEMENT
77, S4
*SURFACE, NAME = UP_92, TYPE=ELEMENT
78, S3
*SURFACE, NAME = LEFT_92, TYPE=ELEMENT
78, S6
*SURFACE, NAME = RIGHT_92, TYPE=ELEMENT
78, S4
*SURFACE, NAME = UP_94, TYPE=ELEMENT
79, S3
*SURFACE, NAME = RIGHT_94, TYPE=ELEMENT
79, S4
*SURFACE, NAME = UP_95, TYPE=ELEMENT
80, S3
*SURFACE, NAME = RIGHT_95, TYPE=ELEMENT
80, S4
*SURFACE, NAME = UP_96, TYPE=ELEMENT
81, S3
*SURFACE, NAME = RIGHT_96, TYPE=ELEMENT
81, S4
*SURFACE, NAME = UP_97, TYPE=ELEMENT
82, S3
*SURFACE, NAME = RIGHT_97, TYPE=ELEMENT
82, S4
*SURFACE, NAME = UP_98, TYPE=ELEMENT
83, S3
*SURFACE, NAME = RIGHT_98, TYPE=ELEMENT
83, S4
*SURFACE, NAME = UP_99, TYPE=ELEMENT
84, S3
*SURFACE, NAME = RIGHT_99, TYPE=ELEMENT
84, S4
*SURFACE, NAME = UP_101, TYPE=ELEMENT
85, S3
*SURFACE, NAME = LEFT_101, TYPE=ELEMENT
85, S6
*SURFACE, NAME = UP_102, TYPE=ELEMENT
86, S3
*SURFACE, NAME = LEFT_102, TYPE=ELEMENT
86, S6
*SURFACE, NAME = UP_103, TYPE=ELEMENT
87, S3
*SURFACE, NAME = LEFT_103, TYPE=ELEMENT
87, S6
*SURFACE, NAME = UP_104, TYPE=ELEMENT
88, S3
*SURFACE, NAME = LEFT_104, TYPE=ELEMENT
88, S6
*SURFACE, NAME = UP_105, TYPE=ELEMENT
89, S3
*SURFACE, NAME = LEFT_105, TYPE=ELEMENT
89, S6
*SURFACE, NAME = UP_106, TYPE=ELEMENT
90, S3
*SURFACE, NAME = LEFT_106, TYPE=ELEMENT
90, S6
*SURFACE, NAME = UP_108, TYPE=ELEMENT
91, S3
*SURFACE, NAME = RIGHT_108, TYPE=ELEMENT
91, S4
*SURFACE, NAME = UP_109, TYPE=ELEMENT
92, S3
*SURFACE, NAME = RIGHT_109, TYPE=ELEMENT
92, S4
*SURFACE, NAME = UP_110, TYPE=ELEMENT
93, S3
*SURFACE, NAME = RIGHT_110, TYPE=ELEMENT
93, S4
*SURFACE, NAME = UP_111, TYPE=ELEMENT
94, S3
*SURFACE, NAME = RIGHT_111, TYPE=ELEMENT
94, S4
*SURFACE, NAME = UP_112, TYPE=ELEMENT
95, S3
*SURFACE, NAME = RIGHT_112, TYPE=ELEMENT
95, S4
*SURFACE, NAME = UP_113, TYPE=ELEMENT
96, S3
*SURFACE, NAME = RIGHT_113, TYPE=ELEMENT
96, S4
*SURFACE, NAME = UP_115, TYPE=ELEMENT
97, S3
*SURFACE, NAME = LEFT_115, TYPE=ELEMENT
97, S6
*SURFACE, NAME = UP_116, TYPE=ELEMENT
98, S3
*SURFACE, NAME = LEFT_116, TYPE=ELEMENT
98, S6
*SURFACE, NAME = UP_117, TYPE=ELEMENT
99, S3
*SURFACE, NAME = LEFT_117, TYPE=ELEMENT
99, S6
*SURFACE, NAME = UP_118, TYPE=ELEMENT
100, S3
*SURFACE, NAME = LEFT_118, TYPE=ELEMENT
100, S6
*SURFACE, NAME = UP_119, TYPE=ELEMENT
101, S3
*SURFACE, NAME = LEFT_119, TYPE=ELEMENT
101, S6
*SURFACE, NAME = UP_120, TYPE=ELEMENT
102, S3
*SURFACE, NAME = LEFT_120, TYPE=ELEMENT
102, S6
*SURFACE, NAME = UP_122, TYPE=ELEMENT
103, S3
*SURFACE, NAME = RIGHT_122, TYPE=ELEMENT
103, S4
*SURFACE, NAME = UP_123, TYPE=ELEMENT
104, S3
*SURFACE, NAME = RIGHT_123, TYPE=ELEMENT
104, S4
*SURFACE, NAME = UP_124, TYPE=ELEMENT
105, S3
*SURFACE, NAME = RIGHT_124, TYPE=ELEMENT
105, S4
*SURFACE, NAME = UP_125, TYPE=ELEMENT
106, S3
*SURFACE, NAME = RIGHT_125, TYPE=ELEMENT
106, S4
*SURFACE, NAME = UP_126, TYPE=ELEMENT
107, S3
*SURFACE, NAME = RIGHT_126, TYPE=ELEMENT
107, S4
*SURFACE, NAME = UP_127, TYPE=ELEMENT
108, S3
*SURFACE, NAME = RIGHT_127, TYPE=ELEMENT
108, S4
*SURFACE, NAME = BUILD_SURFACE, TYPE=ELEMENT
 1, S5
 2, S5
 3, S5
 4, S5
 5, S5
 6, S5
 7, S5
 8, S5
 9, S5
 10, S5
 11, S5
 12, S5
 13, S5
 14, S5
 15, S5
 16, S5
 17, S5
 18, S5
 19, S5
 20, S5
** ... 16 like lines cut
**MATERIEL DEF
*PHYSICAL CONSTANTS, ABSOLUTE ZERO=-273.15, STEFAN BOLTZMAN=5.6703E-8
*Material, name=ABSP430
*Conductivity
0.3,
*Density
1040.,
*Elastic
2200e6., 0.4, 20
1100e6., 0.4, 100
*PLASTIC, HARDENING=ISOTROPIC
31e6, 0.0, 20
33e6, 0.05, 20
15.5e6, 0.0, 90
16.5e6, 0.05, 90
*Expansion
8.82e-05,
*Specific Heat
2020
*SOLID SECTION, ELSET=ALLELEMENTS, MATERIAL = ABSP430

*STEP,NAME = STEP_0, INC= 20000, NLGEOM = YES
*STATIC, NLGEOM=YES
*TEMPERATURE,FILE=6x033_therm, BSTEP=1
*BOUNDARY, TYPE = DISPLACEMENT
BUILD_PLATE, 1, 1 
BUILD_PLATE, 2, 2 
BUILD_PLATE, 3, 3 
*MODEL CHANGE, REMOVE
E_STEP_1,
E_STEP_2,
E_STEP_3,
E_STEP_4,
E_STEP_5,
E_STEP_6,
E_STEP_8,
E_STEP_9,
E_STEP_10,
E_STEP_11,
E_STEP_12,
E_STEP_13,
E_STEP_15,
E_STEP_16,
E_STEP_17,
E_STEP_18,
E_STEP_19,
E_STEP_20,
E_STEP_22,
E_STEP_23,
** ... 88 like lines cut

*RESTART, WRITE, FREQUENCY = 0
*OUTPUT, FIELD, VARIABLE = PRESELECT
*OUTPUT, HISTORY, VARIABLE = PRESELECT
*END STEP


*STEP,NAME = STEP_1, INC= 20000, NLGEOM = YES
*STATIC
*TEMPERATURE,FILE=6x033_therm, BSTEP=1
**SOLUTION TECHNIQUE, TYPE = SEPARATED
*BOUNDARY, TYPE = DISPLACEMENT
BUILD_PLATE, 1, 1 
BUILD_PLATE, 2, 2 
BUILD_PLATE, 3, 3 
*MODEL CHANGE, ADD = STRAIN FREE 
E_STEP_1
*RESTART, WRITE, FREQUENCY = 0
*OUTPUT, FIELD, VARIABLE = PRESELECT, NUMBER INTERVAL = 1 
*OUTPUT, HISTORY, VARIABLE = PRESELECT
*END STEP


*STEP,NAME = STEP_2, INC= 20000, NLGEOM = YES
*STATIC
*TEMPERATURE,FILE=6x033_therm, BSTEP=2
**SOLUTION TECHNIQUE, TYPE = SEPARATED
*BOUNDARY, TYPE = DISPLACEMENT
BUILD_PLATE, 1, 1 
BUILD_PLATE, 2, 2 
BUILD_PLATE, 3, 3 
*MODEL CHANGE, ADD = STRAIN FREE 
E_STEP_2
*RESTART, WRITE, FREQUENCY = 0
*OUTPUT, FIELD, VARIABLE = PRESELECT, NUMBER INTERVAL = 1 
*OUTPUT, HISTORY, VARIABLE = PRESELECT
*END STEP


*STEP,NAME = STEP_3, INC= 20000, NLGEOM = YES
*STATIC
*TEMPERATURE,FILE=6x033_therm, BSTEP=3
**SOLUTION TECHNIQUE, TYPE = SEPARATED
*BOUNDARY, TYPE = DISPLACEMENT
BUILD_PLATE, 1, 1 
BUILD_PLATE, 2, 2 
BUILD_PLATE, 3, 3 
*MODEL CHANGE, ADD = STRAIN FREE 
E_STEP_3
*RESTART, WRITE, FREQUENCY = 0
*OUTPUT, FIELD, VARIABLE = PRESELECT, NUMBER INTERVAL = 1 
*OUTPUT, HISTORY, VARIABLE = PRESELECT
*END STEP


*STEP,NAME = STEP_4, INC= 20000, NLGEOM = YES
*STATIC
*TEMPERATURE,FILE=6x033_therm, BSTEP=4
**SOLUTION TECHNIQUE, TYPE = SEPARATED
*BOUNDARY, TYPE = DISPLACEMENT
BUILD_PLATE, 1, 1 
BUILD_PLATE, 2, 2 
BUILD_PLATE, 3, 3 
*MODEL CHANGE, ADD = STRAIN FREE 
E_STEP_4
*RESTART, WRITE, FREQUENCY = 0
*OUTPUT, FIELD, VARIABLE = PRESELECT, NUMBER INTERVAL = 1 
*OUTPUT, HISTORY, VARIABLE = PRESELECT
*END STEP


*STEP,NAME = STEP_5, INC= 20000, NLGEOM = YES
*STATIC
*TEMPERATURE,FILE=6x033_therm, BSTEP=5
**SOLUTION TECHNIQUE, TYPE = SEPARATED
*BOUNDARY, TYPE = DISPLACEMENT
BUILD_PLATE, 1, 1 
BUILD_PLATE, 2, 2 
BUILD_PLATE, 3, 3 
*MODEL CHANGE, ADD = STRAIN FREE 
E_STEP_5
*RESTART, WRITE, FREQUENCY = 0
*OUTPUT, FIELD, VARIABLE = PRESELECT, NUMBER INTERVAL = 1 
*OUTPUT, HISTORY, VARIABLE = PRESELECT
*END STEP


*STEP,NAME = STEP_6, INC= 20000, NLGEOM = YES
*STATIC
*TEMPERATURE,FILE=6x033_therm, BSTEP=6
**SOLUTION TECHNIQUE, TYPE = SEPARATED
*BOUNDARY, TYPE = DISPLACEMENT
BUILD_PLATE, 1, 1 
BUILD_PLATE, 2, 2 
BUILD_PLATE, 3, 3 
*MODEL CHANGE, ADD = STRAIN FREE 
E_STEP_6
*RESTART, WRITE, FREQUENCY = 0
*OUTPUT, FIELD, VARIABLE = PRESELECT, NUMBER INTERVAL = 1 
*OUTPUT, HISTORY, VARIABLE = PRESELECT
*END STEP


*STEP,NAME = STEP_7, INC= 20000, NLGEOM = YES
*STATIC
*TEMPERATURE,FILE=6x033_therm, BSTEP=7
**SOLUTION TECHNIQUE, TYPE = SEPARATED
*BOUNDARY, TYPE = DISPLACEMENT
BUILD_PLATE, 1, 1 
BUILD_PLATE, 2, 2 
BUILD_PLATE, 3, 3 
*RESTART, WRITE, FREQUENCY = 0
*OUTPUT, FIELD, VARIABLE = PRESELECT, NUMBER INTERVAL = 1 
*OUTPUT, HISTORY, VARIABLE = PRESELECT
*END STEP


*STEP,NAME = STEP_8, INC= 20000, NLGEOM = YES
*STATIC
*TEMPERATURE,FILE=6x033_therm, BSTEP=8
**SOLUTION TECHNIQUE, TYPE = SEPARATED
*BOUNDARY, TYPE = DISPLACEMENT
BUILD_PLATE, 1, 1 
BUILD_PLATE, 2, 2 
BUILD_PLATE, 3, 3 
*MODEL CHANGE, ADD = STRAIN FREE 
E_STEP_8
*RESTART, WRITE, FREQUENCY = 0
*OUTPUT, FIELD, VARIABLE = PRESELECT, NUMBER INTERVAL = 1 
*OUTPUT, HISTORY, VARIABLE = PRESELECT
*END STEP


*STEP,NAME = STEP_9, INC= 20000, NLGEOM = YES
*STATIC
*TEMPERATURE,FILE=6x033_therm, BSTEP=9
**SOLUTION TECHNIQUE, TYPE = SEPARATED
*BOUNDARY, TYPE = DISPLACEMENT
BUILD_PLATE, 1, 1 
BUILD_PLATE, 2, 2 
BUILD_PLATE, 3, 3 
*MODEL CHANGE, ADD = STRAIN FREE 
E_STEP_9
*RESTART, WRITE, FREQUENCY = 0
*OUTPUT, FIELD, VARIABLE = PRESELECT, NUMBER INTERVAL = 1 
*OUTPUT, HISTORY, VARIABLE = PRESELECT
*END STEP


*STEP,NAME = STEP_10, INC= 20000, NLGEOM = YES
*STATIC
*TEMPERATURE,FILE=6x033_therm, BSTEP=10
**SOLUTION TECHNIQUE, TYPE = SEPARATED
*BOUNDARY, TYPE = DISPLACEMENT
BUILD_PLATE, 1, 1 
BUILD_PLATE, 2, 2 
BUILD_PLATE, 3, 3 
*MODEL CHANGE, ADD = STRAIN FREE 
E_STEP_10
*RESTART, WRITE, FREQUENCY = 0
*OUTPUT, FIELD, VARIABLE = PRESELECT, NUMBER INTERVAL = 1 
*OUTPUT, HISTORY, VARIABLE = PRESELECT
*END STEP


*STEP,NAME = STEP_11, INC= 20000, NLGEOM = YES
*STATIC
*TEMPERATURE,FILE=6x033_therm, BSTEP=11
**SOLUTION TECHNIQUE, TYPE = SEPARATED
*BOUNDARY, TYPE = DISPLACEMENT
BUILD_PLATE, 1, 1 
BUILD_PLATE, 2, 2 
BUILD_PLATE, 3, 3 
*MODEL CHANGE, ADD = STRAIN FREE 
E_STEP_11
*RESTART, WRITE, FREQUENCY = 0
*OUTPUT, FIELD, VARIABLE = PRESELECT, NUMBER INTERVAL = 1 
*OUTPUT, HISTORY, VARIABLE = PRESELECT
*END STEP


*STEP,NAME = STEP_12, INC= 20000, NLGEOM = YES
*STATIC
*TEMPERATURE,FILE=6x033_therm, BSTEP=12
**SOLUTION TECHNIQUE, TYPE = SEPARATED
*BOUNDARY, TYPE = DISPLACEMENT
BUILD_PLATE, 1, 1 
BUILD_PLATE, 2, 2 
BUILD_PLATE, 3, 3 
*MODEL CHANGE, ADD = STRAIN FREE 
E_STEP_12
*RESTART, WRITE, FREQUENCY = 0
*OUTPUT, FIELD, VARIABLE = PRESELECT, NUMBER INTERVAL = 1 
*OUTPUT, HISTORY, VARIABLE = PRESELECT
*END STEP


*STEP,NAME = STEP_13, INC= 20000, NLGEOM = YES
*STATIC
*TEMPERATURE,FILE=6x033_therm, BSTEP=13
**SOLUTION TECHNIQUE, TYPE = SEPARATED
*BOUNDARY, TYPE = DISPLACEMENT
BUILD_PLATE, 1, 1 
BUILD_PLATE, 2, 2 
BUILD_PLATE, 3, 3 
*MODEL CHANGE, ADD = STRAIN FREE 
E_STEP_13
*RESTART, WRITE, FREQUENCY = 0
*OUTPUT, FIELD, VARIABLE = PRESELECT, NUMBER INTERVAL = 1 
*OUTPUT, HISTORY, VARIABLE = PRESELECT
*END STEP


*STEP,NAME = STEP_14, INC= 20000, NLGEOM = YES
*STATIC
*TEMPERATURE,FILE=6x033_therm, BSTEP=14
**SOLUTION TECHNIQUE, TYPE = SEPARATED
*BOUNDARY, TYPE = DISPLACEMENT
BUILD_PLATE, 1, 1 
BUILD_PLATE, 2, 2 
BUILD_PLATE, 3, 3 
*RESTART, WRITE, FREQUENCY = 0
*OUTPUT, FIELD, VARIABLE = PRESELECT, NUMBER INTERVAL = 1 
*OUTPUT, HISTORY, VARIABLE = PRESELECT
*END STEP


*STEP,NAME = STEP_15, INC= 20000, NLGEOM = YES
*STATIC
*TEMPERATURE,FILE=6x033_therm, BSTEP=15
**SOLUTION TECHNIQUE, TYPE = SEPARATED
*BOUNDARY, TYPE = DISPLACEMENT
BUILD_PLATE, 1, 1 
BUILD_PLATE, 2, 2 
BUILD_PLATE, 3, 3 
*MODEL CHANGE, ADD = STRAIN FREE 
E_STEP_15
*RESTART, WRITE, FREQUENCY = 0
*OUTPUT, FIELD, VARIABLE = PRESELECT, NUMBER INTERVAL = 1 
*OUTPUT, HISTORY, VARIABLE = PRESELECT
*END STEP


*STEP,NAME = STEP_16, INC= 20000, NLGEOM = YES
*STATIC
*TEMPERATURE,FILE=6x033_therm, BSTEP=16
**SOLUTION TECHNIQUE, TYPE = SEPARATED
*BOUNDARY, TYPE = DISPLACEMENT
BUILD_PLATE, 1, 1 
BUILD_PLATE, 2, 2 
BUILD_PLATE, 3, 3 
*MODEL CHANGE, ADD = STRAIN FREE 
E_STEP_16
*RESTART, WRITE, FREQUENCY = 0
*OUTPUT, FIELD, VARIABLE = PRESELECT, NUMBER INTERVAL = 1 
*OUTPUT, HISTORY, VARIABLE = PRESELECT
*END STEP


*STEP,NAME = STEP_17, INC= 20000, NLGEOM = YES
*STATIC
*TEMPERATURE,FILE=6x033_therm, BSTEP=17
**SOLUTION TECHNIQUE, TYPE = SEPARATED
*BOUNDARY, TYPE = DISPLACEMENT
BUILD_PLATE, 1, 1 
BUILD_PLATE, 2, 2 
BUILD_PLATE, 3, 3 
*MODEL CHANGE, ADD = STRAIN FREE 
E_STEP_17
*RESTART, WRITE, FREQUENCY = 0
*OUTPUT, FIELD, VARIABLE = PRESELECT, NUMBER INTERVAL = 1 
*OUTPUT, HISTORY, VARIABLE = PRESELECT
*END STEP


*STEP,NAME = STEP_18, INC= 20000, NLGEOM = YES
*STATIC
*TEMPERATURE,FILE=6x033_therm, BSTEP=18
**SOLUTION TECHNIQUE, TYPE = SEPARATED
*BOUNDARY, TYPE = DISPLACEMENT
BUILD_PLATE, 1, 1 
BUILD_PLATE, 2, 2 
BUILD_PLATE, 3, 3 
*MODEL CHANGE, ADD = STRAIN FREE 
E_STEP_18
*RESTART, WRITE, FREQUENCY = 0
*OUTPUT, FIELD, VARIABLE = PRESELECT, NUMBER INTERVAL = 1 
*OUTPUT, HISTORY, VARIABLE = PRESELECT
*END STEP


*STEP,NAME = STEP_19, INC= 20000, NLGEOM = YES
*STATIC
*TEMPERATURE,FILE=6x033_therm, BSTEP=19
**SOLUTION TECHNIQUE, TYPE = SEPARATED
*BOUNDARY, TYPE = DISPLACEMENT
BUILD_PLATE, 1, 1 
BUILD_PLATE, 2, 2 
BUILD_PLATE, 3, 3 
*MODEL CHANGE, ADD = STRAIN FREE 
E_STEP_19
*RESTART, WRITE, FREQUENCY = 0
*OUTPUT, FIELD, VARIABLE = PRESELECT, NUMBER INTERVAL = 1 
*OUTPUT, HISTORY, VARIABLE = PRESELECT
*END STEP


*STEP,NAME = STEP_20, INC= 20000, NLGEOM = YES
*STATIC
*TEMPERATURE,FILE=6x033_therm, BSTEP=20
**SOLUTION TECHNIQUE, TYPE = SEPARATED
*BOUNDARY, TYPE = DISPLACEMENT
BUILD_PLATE, 1, 1 
BUILD_PLATE, 2, 2 
BUILD_PLATE, 3, 3 
*MODEL CHANGE, ADD = STRAIN FREE 
E_STEP_20
*RESTART, WRITE, FREQUENCY = 0
*OUTPUT, FIELD, VARIABLE = PRESELECT, NUMBER INTERVAL = 1 
*OUTPUT, HISTORY, VARIABLE = PRESELECT
*END STEP


*STEP,NAME = STEP_21, INC= 20000, NLGEOM = YES
*STATIC
*TEMPERATURE,FILE=6x033_therm, BSTEP=21
**SOLUTION TECHNIQUE, TYPE = SEPARATED
*BOUNDARY, TYPE = DISPLACEMENT
BUILD_PLATE, 1, 1 
BUILD_PLATE, 2, 2 
BUILD_PLATE, 3, 3 
*RESTART, WRITE, FREQUENCY = 0
*OUTPUT, FIELD, VARIABLE = PRESELECT, NUMBER INTERVAL = 1 
*OUTPUT, HISTORY, VARIABLE = PRESELECT
*END STEP


*STEP,NAME = STEP_22, INC= 20000, NLGEOM = YES
*STATIC
*TEMPERATURE,FILE=6x033_therm, BSTEP=22
**SOLUTION TECHNIQUE, TYPE = SEPARATED
*BOUNDARY, TYPE = DISPLACEMENT
BUILD_PLATE, 1, 1 
BUILD_PLATE, 2, 2 
BUILD_PLATE, 3, 3 
*MODEL CHANGE, ADD = STRAIN FREE 
E_STEP_22
*RESTART, WRITE, FREQUENCY = 0
*OUTPUT, FIELD, VARIABLE = PRESELECT, NUMBER INTERVAL = 1 
*OUTPUT, HISTORY, VARIABLE = PRESELECT
*END STEP


*STEP,NAME = STEP_23, INC= 20000, NLGEOM = YES
*STATIC
*TEMPERATURE,FILE=6x033_therm, BSTEP=23
**SOLUTION TECHNIQUE, TYPE = SEPARATED
*BOUNDARY, TYPE = DISPLACEMENT
BUILD_PLATE, 1, 1 
BUILD_PLATE, 2, 2 
BUILD_PLATE, 3, 3 
*MODEL CHANGE, ADD = STRAIN FREE 
E_STEP_23
*RESTART, WRITE, FREQUENCY = 0
*OUTPUT, FIELD, VARIABLE = PRESELECT, NUMBER INTERVAL = 1 
*OUTPUT, HISTORY, VARIABLE = PRESELECT
*END STEP


*STEP,NAME = STEP_24, INC= 20000, NLGEOM = YES
*STATIC
*TEMPERATURE,FILE=6x033_therm, BSTEP=24
**SOLUTION TECHNIQUE, TYPE = SEPARATED
*BOUNDARY, TYPE = DISPLACEMENT
BUILD_PLATE, 1, 1 
BUILD_PLATE, 2, 2 
BUILD_PLATE, 3, 3 
*MODEL CHANGE, ADD = STRAIN FREE 
E_STEP_24
*RESTART, WRITE, FREQUENCY = 0
*OUTPUT, FIELD, VARIABLE = PRESELECT, NUMBER INTERVAL = 1 
*OUTPUT, HISTORY, VARIABLE = PRESELECT
*END STEP


*STEP,NAME = STEP_25, INC= 20000, NLGEOM = YES
*STATIC
*TEMPERATURE,FILE=6x033_therm, BSTEP=25
**SOLUTION TECHNIQUE, TYPE = SEPARATED
*BOUNDARY, TYPE = DISPLACEMENT
BUILD_PLATE, 1, 1 
BUILD_PLATE, 2, 2 
BUILD_PLATE, 3, 3 
*MODEL CHANGE, ADD = STRAIN FREE 
E_STEP_25
*RESTART, WRITE, FREQUENCY = 0
*OUTPUT, FIELD, VARIABLE = PRESELECT, NUMBER INTERVAL = 1 
*OUTPUT, HISTORY, VARIABLE = PRESELECT
*END STEP


*STEP,NAME = STEP_26, INC= 20000, NLGEOM = YES
*STATIC
*TEMPERATURE,FILE=6x033_therm, BSTEP=26
**SOLUTION TECHNIQUE, TYPE = SEPARATED
*BOUNDARY, TYPE = DISPLACEMENT
BUILD_PLATE, 1, 1 
BUILD_PLATE, 2, 2 
BUILD_PLATE, 3, 3 
*MODEL CHANGE, ADD = STRAIN FREE 
E_STEP_26
*RESTART, WRITE, FREQUENCY = 0
*OUTPUT, FIELD, VARIABLE = PRESELECT, NUMBER INTERVAL = 1 
*OUTPUT, HISTORY, VARIABLE = PRESELECT
*END STEP


*STEP,NAME = STEP_27, INC= 20000, NLGEOM = YES
*STATIC
*TEMPERATURE,FILE=6x033_therm, BSTEP=27
**SOLUTION TECHNIQUE, TYPE = SEPARATED
*BOUNDARY, TYPE = DISPLACEMENT
BUILD_PLATE, 1, 1 
BUILD_PLATE, 2, 2 
BUILD_PLATE, 3, 3 
*MODEL CHANGE, ADD = STRAIN FREE 
E_STEP_27
*RESTART, WRITE, FREQUENCY = 0
*OUTPUT, FIELD, VARIABLE = PRESELECT, NUMBER INTERVAL = 1 
*OUTPUT, HISTORY, VARIABLE = PRESELECT
*END STEP


*STEP,NAME = STEP_28, INC= 20000, NLGEOM = YES
*STATIC
*TEMPERATURE,FILE=6x033_therm, BSTEP=28
**SOLUTION TECHNIQUE, TYPE = SEPARATED
*BOUNDARY, TYPE = DISPLACEMENT
BUILD_PLATE, 1, 1 
BUILD_PLATE, 2, 2 
BUILD_PLATE, 3, 3 
*RESTART, WRITE, FREQUENCY = 0
*OUTPUT, FIELD, VARIABLE = PRESELECT, NUMBER INTERVAL = 1 
*OUTPUT, HISTORY, VARIABLE = PRESELECT
*END STEP


*STEP,NAME = STEP_29, INC= 20000, NLGEOM = YES
*STATIC
*TEMPERATURE,FILE=6x033_therm, BSTEP=29
**SOLUTION TECHNIQUE, TYPE = SEPARATED
*BOUNDARY, TYPE = DISPLACEMENT
BUILD_PLATE, 1, 1 
BUILD_PLATE, 2, 2 
BUILD_PLATE, 3, 3 
*MODEL CHANGE, ADD = STRAIN FREE 
E_STEP_29
*RESTART, WRITE, FREQUENCY = 0
*OUTPUT, FIELD, VARIABLE = PRESELECT, NUMBER INTERVAL = 1 
*OUTPUT, HISTORY, VARIABLE = PRESELECT
*END STEP


*STEP,NAME = STEP_30, INC= 20000, NLGEOM = YES
*STATIC
*TEMPERATURE,FILE=6x033_therm, BSTEP=30
**SOLUTION TECHNIQUE, TYPE = SEPARATED
*BOUNDARY, TYPE = DISPLACEMENT
BUILD_PLATE, 1, 1 
BUILD_PLATE, 2, 2 
BUILD_PLATE, 3, 3 
*MODEL CHANGE, ADD = STRAIN FREE 
E_STEP_30
*RESTART, WRITE, FREQUENCY = 0
*OUTPUT, FIELD, VARIABLE = PRESELECT, NUMBER INTERVAL = 1 
*OUTPUT, HISTORY, VARIABLE = PRESELECT
*END STEP


*STEP,NAME = STEP_31, INC= 20000, NLGEOM = YES
*STATIC
*TEMPERATURE,FILE=6x033_therm, BSTEP=31
**SOLUTION TECHNIQUE, TYPE = SEPARATED
*BOUNDARY, TYPE = DISPLACEMENT
BUILD_PLATE, 1, 1 
BUILD_PLATE, 2, 2 
BUILD_PLATE, 3, 3 
*MODEL CHANGE, ADD = STRAIN FREE 
E_STEP_31
*RESTART, WRITE, FREQUENCY = 0
*OUTPUT, FIELD, VARIABLE = PRESELECT, NUMBER INTERVAL = 1 
*OUTPUT, HISTORY, VARIABLE = PRESELECT
*END STEP


*STEP,NAME = STEP_32, INC= 20000, NLGEOM = YES
*STATIC
*TEMPERATURE,FILE=6x033_therm, BSTEP=32
**SOLUTION TECHNIQUE, TYPE = SEPARATED
*BOUNDARY, TYPE = DISPLACEMENT
BUILD_PLATE, 1, 1 
BUILD_PLATE, 2, 2 
BUILD_PLATE, 3, 3 
*MODEL CHANGE, ADD = STRAIN FREE 
E_STEP_32
*RESTART, WRITE, FREQUENCY = 0
*OUTPUT, FIELD, VARIABLE = PRESELECT, NUMBER INTERVAL = 1 
*OUTPUT, HISTORY, VARIABLE = PRESELECT
*END STEP


*STEP,NAME = STEP_33, INC= 20000, NLGEOM = YES
*STATIC
*TEMPERATURE,FILE=6x033_therm, BSTEP=33
**SOLUTION TECHNIQUE, TYPE = SEPARATED
*BOUNDARY, TYPE = DISPLACEMENT
BUILD_PLATE, 1, 1 
BUILD_PLATE, 2, 2 
BUILD_PLATE, 3, 3 
*MODEL CHANGE, ADD = STRAIN FREE 
E_STEP_33
*RESTART, WRITE, FREQUENCY = 0
*OUTPUT, FIELD, VARIABLE = PRESELECT, NUMBER INTERVAL = 1 
*OUTPUT, HISTORY, VARIABLE = PRESELECT
*END STEP


*STEP,NAME = STEP_34, INC= 20000, NLGEOM = YES
*STATIC
*TEMPERATURE,FILE=6x033_therm, BSTEP=34
**SOLUTION TECHNIQUE, TYPE = SEPARATED
*BOUNDARY, TYPE = DISPLACEMENT
BUILD_PLATE, 1, 1 
BUILD_PLATE, 2, 2 
BUILD_PLATE, 3, 3 
*MODEL CHANGE, ADD = STRAIN FREE 
E_STEP_34
*RESTART, WRITE, FREQUENCY = 0
*OUTPUT, FIELD, VARIABLE = PRESELECT, NUMBER INTERVAL = 1 
*OUTPUT, HISTORY, VARIABLE = PRESELECT
*END STEP


*STEP,NAME = STEP_35, INC= 20000, NLGEOM = YES
*STATIC
*TEMPERATURE,FILE=6x033_therm, BSTEP=35
**SOLUTION TECHNIQUE, TYPE = SEPARATED
*BOUNDARY, TYPE = DISPLACEMENT
BUILD_PLATE, 1, 1 
BUILD_PLATE, 2, 2 
BUILD_PLATE, 3, 3 
*RESTART, WRITE, FREQUENCY = 0
*OUTPUT, FIELD, VARIABLE = PRESELECT, NUMBER INTERVAL = 1 
*OUTPUT, HISTORY, VARIABLE = PRESELECT
*END STEP


*STEP,NAME = STEP_36, INC= 20000, NLGEOM = YES
*STATIC
*TEMPERATURE,FILE=6x033_therm, BSTEP=36
**SOLUTION TECHNIQUE, TYPE = SEPARATED
*BOUNDARY, TYPE = DISPLACEMENT
BUILD_PLATE, 1, 1 
BUILD_PLATE, 2, 2 
BUILD_PLATE, 3, 3 
*MODEL CHANGE, ADD = STRAIN FREE 
E_STEP_36
*RESTART, WRITE, FREQUENCY = 0
*OUTPUT, FIELD, VARIABLE = PRESELECT, NUMBER INTERVAL = 1 
*OUTPUT, HISTORY, VARIABLE = PRESELECT
*END STEP


*STEP,NAME = STEP_37, INC= 20000, NLGEOM = YES
*STATIC
*TEMPERATURE,FILE=6x033_therm, BSTEP=37
**SOLUTION TECHNIQUE, TYPE = SEPARATED
*BOUNDARY, TYPE = DISPLACEMENT
BUILD_PLATE, 1, 1 
BUILD_PLATE, 2, 2 
BUILD_PLATE, 3, 3 
*MODEL CHANGE, ADD = STRAIN FREE 
E_STEP_37
*RESTART, WRITE, FREQUENCY = 0
*OUTPUT, FIELD, VARIABLE = PRESELECT, NUMBER INTERVAL = 1 
*OUTPUT, HISTORY, VARIABLE = PRESELECT
*END STEP


*STEP,NAME = STEP_38, INC= 20000, NLGEOM = YES
*STATIC
*TEMPERATURE,FILE=6x033_therm, BSTEP=38
**SOLUTION TECHNIQUE, TYPE = SEPARATED
*BOUNDARY, TYPE = DISPLACEMENT
BUILD_PLATE, 1, 1 
BUILD_PLATE, 2, 2 
BUILD_PLATE, 3, 3 
*MODEL CHANGE, ADD = STRAIN FREE 
E_STEP_38
*RESTART, WRITE, FREQUENCY = 0
*OUTPUT, FIELD, VARIABLE = PRESELECT, NUMBER INTERVAL = 1 
*OUTPUT, HISTORY, VARIABLE = PRESELECT
*END STEP


*STEP,NAME = STEP_39, INC= 20000, NLGEOM = YES
*STATIC
*TEMPERATURE,FILE=6x033_therm, BSTEP=39
**SOLUTION TECHNIQUE, TYPE = SEPARATED
*BOUNDARY, TYPE = DISPLACEMENT
BUILD_PLATE, 1, 1 
BUILD_PLATE, 2, 2 
BUILD_PLATE, 3, 3 
*MODEL CHANGE, ADD = STRAIN FREE 
E_STEP_39
*RESTART, WRITE, FREQUENCY = 0
*OUTPUT, FIELD, VARIABLE = PRESELECT, NUMBER INTERVAL = 1 
*OUTPUT, HISTORY, VARIABLE = PRESELECT
*END STEP


*STEP,NAME = STEP_40, INC= 20000, NLGEOM = YES
*STATIC
*TEMPERATURE,FILE=6x033_therm, BSTEP=40
**SOLUTION TECHNIQUE, TYPE = SEPARATED
*BOUNDARY, TYPE = DISPLACEMENT
BUILD_PLATE, 1, 1 
BUILD_PLATE, 2, 2 
BUILD_PLATE, 3, 3 
*MODEL CHANGE, ADD = STRAIN FREE 
E_STEP_40
*RESTART, WRITE, FREQUENCY = 0
*OUTPUT, FIELD, VARIABLE = PRESELECT, NUMBER INTERVAL = 1 
*OUTPUT, HISTORY, VARIABLE = PRESELECT
*END STEP


*STEP,NAME = STEP_41, INC= 20000, NLGEOM = YES
*STATIC
*TEMPERATURE,FILE=6x033_therm, BSTEP=41
**SOLUTION TECHNIQUE, TYPE = SEPARATED
*BOUNDARY, TYPE = DISPLACEMENT
BUILD_PLATE, 1, 1 
BUILD_PLATE, 2, 2 
BUILD_PLATE, 3, 3 
*MODEL CHANGE, ADD = STRAIN FREE 
E_STEP_41
*RESTART, WRITE, FREQUENCY = 0
*OUTPUT, FIELD, VARIABLE = PRESELECT, NUMBER INTERVAL = 1 
*OUTPUT, HISTORY, VARIABLE = PRESELECT
*END STEP


*STEP,NAME = STEP_42, INC= 20000, NLGEOM = YES
*STATIC
*TEMPERATURE,FILE=6x033_therm, BSTEP=42
**SOLUTION TECHNIQUE, TYPE = SEPARATED
*BOUNDARY, TYPE = DISPLACEMENT
BUILD_PLATE, 1, 1 
BUILD_PLATE, 2, 2 
BUILD_PLATE, 3, 3 
*RESTART, WRITE, FREQUENCY = 0
*OUTPUT, FIELD, VARIABLE = PRESELECT, NUMBER INTERVAL = 1 
*OUTPUT, HISTORY, VARIABLE = PRESELECT
*END STEP


*STEP,NAME = STEP_43, INC= 20000, NLGEOM = YES
*STATIC
*TEMPERATURE,FILE=6x033_therm, BSTEP=43
**SOLUTION TECHNIQUE, TYPE = SEPARATED
*BOUNDARY, TYPE = DISPLACEMENT
BUILD_PLATE, 1, 1 
BUILD_PLATE, 2, 2 
BUILD_PLATE, 3, 3 
*RESTART, WRITE, FREQUENCY = 0
*OUTPUT, FIELD, VARIABLE = PRESELECT, NUMBER INTERVAL = 1 
*OUTPUT, HISTORY, VARIABLE = PRESELECT
*END STEP


*STEP,NAME = STEP_44, INC= 20000, NLGEOM = YES
*STATIC
*TEMPERATURE,FILE=6x033_therm, BSTEP=44
**SOLUTION TECHNIQUE, TYPE = SEPARATED
*BOUNDARY, TYPE = DISPLACEMENT
BUILD_PLATE, 1, 1 
BUILD_PLATE, 2, 2 
BUILD_PLATE, 3, 3 
*MODEL CHANGE, ADD = STRAIN FREE 
E_STEP_44
*RESTART, WRITE, FREQUENCY = 0
*OUTPUT, FIELD, VARIABLE = PRESELECT, NUMBER INTERVAL = 1 
*OUTPUT, HISTORY, VARIABLE = PRESELECT
*END STEP


*STEP,NAME = STEP_45, INC= 20000, NLGEOM = YES
*STATIC
*TEMPERATURE,FILE=6x033_therm, BSTEP=45
**SOLUTION TECHNIQUE, TYPE = SEPARATED
*BOUNDARY, TYPE = DISPLACEMENT
BUILD_PLATE, 1, 1 
BUILD_PLATE, 2, 2 
BUILD_PLATE, 3, 3 
*MODEL CHANGE, ADD = STRAIN FREE 
E_STEP_45
*RESTART, WRITE, FREQUENCY = 0
*OUTPUT, FIELD, VARIABLE = PRESELECT, NUMBER INTERVAL = 1 
*OUTPUT, HISTORY, VARIABLE = PRESELECT
*END STEP


*STEP,NAME = STEP_46, INC= 20000, NLGEOM = YES
*STATIC
*TEMPERATURE,FILE=6x033_therm, BSTEP=46
**SOLUTION TECHNIQUE, TYPE = SEPARATED
*BOUNDARY, TYPE = DISPLACEMENT
BUILD_PLATE, 1, 1 
BUILD_PLATE, 2, 2 
BUILD_PLATE, 3, 3 
*MODEL CHANGE, ADD = STRAIN FREE 
E_STEP_46
*RESTART, WRITE, FREQUENCY = 0
*OUTPUT, FIELD, VARIABLE = PRESELECT, NUMBER INTERVAL = 1 
*OUTPUT, HISTORY, VARIABLE = PRESELECT
*END STEP


*STEP,NAME = STEP_47, INC= 20000, NLGEOM = YES
*STATIC
*TEMPERATURE,FILE=6x033_therm, BSTEP=47
**SOLUTION TECHNIQUE, TYPE = SEPARATED
*BOUNDARY, TYPE = DISPLACEMENT
BUILD_PLATE, 1, 1 
BUILD_PLATE, 2, 2 
BUILD_PLATE, 3, 3 
*MODEL CHANGE, ADD = STRAIN FREE 
E_STEP_47
*RESTART, WRITE, FREQUENCY = 0
*OUTPUT, FIELD, VARIABLE = PRESELECT, NUMBER INTERVAL = 1 
*OUTPUT, HISTORY, VARIABLE = PRESELECT
*END STEP


*STEP,NAME = STEP_48, INC= 20000, NLGEOM = YES
*STATIC
*TEMPERATURE,FILE=6x033_therm, BSTEP=48
**SOLUTION TECHNIQUE, TYPE = SEPARATED
*BOUNDARY, TYPE = DISPLACEMENT
BUILD_PLATE, 1, 1 
BUILD_PLATE, 2, 2 
BUILD_PLATE, 3, 3 
*MODEL CHANGE, ADD = STRAIN FREE 
E_STEP_48
*RESTART, WRITE, FREQUENCY = 0
*OUTPUT, FIELD, VARIABLE = PRESELECT, NUMBER INTERVAL = 1 
*OUTPUT, HISTORY, VARIABLE = PRESELECT
*END STEP


*STEP,NAME = STEP_49, INC= 20000, NLGEOM = YES
*STATIC
*TEMPERATURE,FILE=6x033_therm, BSTEP=49
**SOLUTION TECHNIQUE, TYPE = SEPARATED
*BOUNDARY, TYPE = DISPLACEMENT
BUILD_PLATE, 1, 1 
BUILD_PLATE, 2, 2 
BUILD_PLATE, 3, 3 
*MODEL CHANGE, ADD = STRAIN FREE 
E_STEP_49
*RESTART, WRITE, FREQUENCY = 0
*OUTPUT, FIELD, VARIABLE = PRESELECT, NUMBER INTERVAL = 1 
*OUTPUT, HISTORY, VARIABLE = PRESELECT
*END STEP


*STEP,NAME = STEP_50, INC= 20000, NLGEOM = YES
*STATIC
*TEMPERATURE,FILE=6x033_therm, BSTEP=50
**SOLUTION TECHNIQUE, TYPE = SEPARATED
*BOUNDARY, TYPE = DISPLACEMENT
BUILD_PLATE, 1, 1 
BUILD_PLATE, 2, 2 
BUILD_PLATE, 3, 3 
*RESTART, WRITE, FREQUENCY = 0
*OUTPUT, FIELD, VARIABLE = PRESELECT, NUMBER INTERVAL = 1 
*OUTPUT, HISTORY, VARIABLE = PRESELECT
*END STEP


*STEP,NAME = STEP_51, INC= 20000, NLGEOM = YES
*STATIC
*TEMPERATURE,FILE=6x033_therm, BSTEP=51
**SOLUTION TECHNIQUE, TYPE = SEPARATED
*BOUNDARY, TYPE = DISPLACEMENT
BUILD_PLATE, 1, 1 
BUILD_PLATE, 2, 2 
BUILD_PLATE, 3, 3 
*MODEL CHANGE, ADD = STRAIN FREE 
E_STEP_51
*RESTART, WRITE, FREQUENCY = 0
*OUTPUT, FIELD, VARIABLE = PRESELECT, NUMBER INTERVAL = 1 
*OUTPUT, HISTORY, VARIABLE = PRESELECT
*END STEP


*STEP,NAME = STEP_52, INC= 20000, NLGEOM = YES
*STATIC
*TEMPERATURE,FILE=6x033_therm, BSTEP=52
**SOLUTION TECHNIQUE, TYPE = SEPARATED
*BOUNDARY, TYPE = DISPLACEMENT
BUILD_PLATE, 1, 1 
BUILD_PLATE, 2, 2 
BUILD_PLATE, 3, 3 
*MODEL CHANGE, ADD = STRAIN FREE 
E_STEP_52
*RESTART, WRITE, FREQUENCY = 0
*OUTPUT, FIELD, VARIABLE = PRESELECT, NUMBER INTERVAL = 1 
*OUTPUT, HISTORY, VARIABLE = PRESELECT
*END STEP


*STEP,NAME = STEP_53, INC= 20000, NLGEOM = YES
*STATIC
*TEMPERATURE,FILE=6x033_therm, BSTEP=53
**SOLUTION TECHNIQUE, TYPE = SEPARATED
*BOUNDARY, TYPE = DISPLACEMENT
BUILD_PLATE, 1, 1 
BUILD_PLATE, 2, 2 
BUILD_PLATE, 3, 3 
*MODEL CHANGE, ADD = STRAIN FREE 
E_STEP_53
*RESTART, WRITE, FREQUENCY = 0
*OUTPUT, FIELD, VARIABLE = PRESELECT, NUMBER INTERVAL = 1 
*OUTPUT, HISTORY, VARIABLE = PRESELECT
*END STEP


*STEP,NAME = STEP_54, INC= 20000, NLGEOM = YES
*STATIC
*TEMPERATURE,FILE=6x033_therm, BSTEP=54
**SOLUTION TECHNIQUE, TYPE = SEPARATED
*BOUNDARY, TYPE = DISPLACEMENT
BUILD_PLATE, 1, 1 
BUILD_PLATE, 2, 2 
BUILD_PLATE, 3, 3 
*MODEL CHANGE, ADD = STRAIN FREE 
E_STEP_54
*RESTART, WRITE, FREQUENCY = 0
*OUTPUT, FIELD, VARIABLE = PRESELECT, NUMBER INTERVAL = 1 
*OUTPUT, HISTORY, VARIABLE = PRESELECT
*END STEP


*STEP,NAME = STEP_55, INC= 20000, NLGEOM = YES
*STATIC
*TEMPERATURE,FILE=6x033_therm, BSTEP=55
**SOLUTION TECHNIQUE, TYPE = SEPARATED
*BOUNDARY, TYPE = DISPLACEMENT
BUILD_PLATE, 1, 1 
BUILD_PLATE, 2, 2 
BUILD_PLATE, 3, 3 
*MODEL CHANGE, ADD = STRAIN FREE 
E_STEP_55
*RESTART, WRITE, FREQUENCY = 0
*OUTPUT, FIELD, VARIABLE = PRESELECT, NUMBER INTERVAL = 1 
*OUTPUT, HISTORY, VARIABLE = PRESELECT
*END STEP


*STEP,NAME = STEP_56, INC= 20000, NLGEOM = YES
*STATIC
*TEMPERATURE,FILE=6x033_therm, BSTEP=56
**SOLUTION TECHNIQUE, TYPE = SEPARATED
*BOUNDARY, TYPE = DISPLACEMENT
BUILD_PLATE, 1, 1 
BUILD_PLATE, 2, 2 
BUILD_PLATE, 3, 3 
*MODEL CHANGE, ADD = STRAIN FREE 
E_STEP_56
*RESTART, WRITE, FREQUENCY = 0
*OUTPUT, FIELD, VARIABLE = PRESELECT, NUMBER INTERVAL = 1 
*OUTPUT, HISTORY, VARIABLE = PRESELECT
*END STEP


*STEP,NAME = STEP_57, INC= 20000, NLGEOM = YES
*STATIC
*TEMPERATURE,FILE=6x033_therm, BSTEP=57
**SOLUTION TECHNIQUE, TYPE = SEPARATED
*BOUNDARY, TYPE = DISPLACEMENT
BUILD_PLATE, 1, 1 
BUILD_PLATE, 2, 2 
BUILD_PLATE, 3, 3 
*RESTART, WRITE, FREQUENCY = 0
*OUTPUT, FIELD, VARIABLE = PRESELECT, NUMBER INTERVAL = 1 
*OUTPUT, HISTORY, VARIABLE = PRESELECT
*END STEP


*STEP,NAME = STEP_58, INC= 20000, NLGEOM = YES
*STATIC
*TEMPERATURE,FILE=6x033_therm, BSTEP=58
**SOLUTION TECHNIQUE, TYPE = SEPARATED
*BOUNDARY, TYPE = DISPLACEMENT
BUILD_PLATE, 1, 1 
BUILD_PLATE, 2, 2 
BUILD_PLATE, 3, 3 
*MODEL CHANGE, ADD = STRAIN FREE 
E_STEP_58
*RESTART, WRITE, FREQUENCY = 0
*OUTPUT, FIELD, VARIABLE = PRESELECT, NUMBER INTERVAL = 1 
*OUTPUT, HISTORY, VARIABLE = PRESELECT
*END STEP


*STEP,NAME = STEP_59, INC= 20000, NLGEOM = YES
*STATIC
*TEMPERATURE,FILE=6x033_therm, BSTEP=59
**SOLUTION TECHNIQUE, TYPE = SEPARATED
*BOUNDARY, TYPE = DISPLACEMENT
BUILD_PLATE, 1, 1 
BUILD_PLATE, 2, 2 
BUILD_PLATE, 3, 3 
*MODEL CHANGE, ADD = STRAIN FREE 
E_STEP_59
*RESTART, WRITE, FREQUENCY = 0
*OUTPUT, FIELD, VARIABLE = PRESELECT, NUMBER INTERVAL = 1 
*OUTPUT, HISTORY, VARIABLE = PRESELECT
*END STEP


*STEP,NAME = STEP_60, INC= 20000, NLGEOM = YES
*STATIC
*TEMPERATURE,FILE=6x033_therm, BSTEP=60
**SOLUTION TECHNIQUE, TYPE = SEPARATED
*BOUNDARY, TYPE = DISPLACEMENT
BUILD_PLATE, 1, 1 
BUILD_PLATE, 2, 2 
BUILD_PLATE, 3, 3 
*MODEL CHANGE, ADD = STRAIN FREE 
E_STEP_60
*RESTART, WRITE, FREQUENCY = 0
*OUTPUT, FIELD, VARIABLE = PRESELECT, NUMBER INTERVAL = 1 
*OUTPUT, HISTORY, VARIABLE = PRESELECT
*END STEP


*STEP,NAME = STEP_61, INC= 20000, NLGEOM = YES
*STATIC
*TEMPERATURE,FILE=6x033_therm, BSTEP=61
**SOLUTION TECHNIQUE, TYPE = SEPARATED
*BOUNDARY, TYPE = DISPLACEMENT
BUILD_PLATE, 1, 1 
BUILD_PLATE, 2, 2 
BUILD_PLATE, 3, 3 
*MODEL CHANGE, ADD = STRAIN FREE 
E_STEP_61
*RESTART, WRITE, FREQUENCY = 0
*OUTPUT, FIELD, VARIABLE = PRESELECT, NUMBER INTERVAL = 1 
*OUTPUT, HISTORY, VARIABLE = PRESELECT
*END STEP


*STEP,NAME = STEP_62, INC= 20000, NLGEOM = YES
*STATIC
*TEMPERATURE,FILE=6x033_therm, BSTEP=62
**SOLUTION TECHNIQUE, TYPE = SEPARATED
*BOUNDARY, TYPE = DISPLACEMENT
BUILD_PLATE, 1, 1 
BUILD_PLATE, 2, 2 
BUILD_PLATE, 3, 3 
*MODEL CHANGE, ADD = STRAIN FREE 
E_STEP_62
*RESTART, WRITE, FREQUENCY = 0
*OUTPUT, FIELD, VARIABLE = PRESELECT, NUMBER INTERVAL = 1 
*OUTPUT, HISTORY, VARIABLE = PRESELECT
*END STEP


*STEP,NAME = STEP_63, INC= 20000, NLGEOM = YES
*STATIC
*TEMPERATURE,FILE=6x033_therm, BSTEP=63
**SOLUTION TECHNIQUE, TYPE = SEPARATED
*BOUNDARY, TYPE = DISPLACEMENT
BUILD_PLATE, 1, 1 
BUILD_PLATE, 2, 2 
BUILD_PLATE, 3, 3 
*MODEL CHANGE, ADD = STRAIN FREE 
E_STEP_63
*RESTART, WRITE, FREQUENCY = 0
*OUTPUT, FIELD, VARIABLE = PRESELECT, NUMBER INTERVAL = 1 
*OUTPUT, HISTORY, VARIABLE = PRESELECT
*END STEP


*STEP,NAME = STEP_64, INC= 20000, NLGEOM = YES
*STATIC
*TEMPERATURE,FILE=6x033_therm, BSTEP=64
**SOLUTION TECHNIQUE, TYPE = SEPARATED
*BOUNDARY, TYPE = DISPLACEMENT
BUILD_PLATE, 1, 1 
BUILD_PLATE, 2, 2 
BUILD_PLATE, 3, 3 
*RESTART, WRITE, FREQUENCY = 0
*OUTPUT, FIELD, VARIABLE = PRESELECT, NUMBER INTERVAL = 1 
*OUTPUT, HISTORY, VARIABLE = PRESELECT
*END STEP


*STEP,NAME = STEP_65, INC= 20000, NLGEOM = YES
*STATIC
*TEMPERATURE,FILE=6x033_therm, BSTEP=65
**SOLUTION TECHNIQUE, TYPE = SEPARATED
*BOUNDARY, TYPE = DISPLACEMENT
BUILD_PLATE, 1, 1 
BUILD_PLATE, 2, 2 
BUILD_PLATE, 3, 3 
*MODEL CHANGE, ADD = STRAIN FREE 
E_STEP_65
*RESTART, WRITE, FREQUENCY = 0
*OUTPUT, FIELD, VARIABLE = PRESELECT, NUMBER INTERVAL = 1 
*OUTPUT, HISTORY, VARIABLE = PRESELECT
*END STEP


*STEP,NAME = STEP_66, INC= 20000, NLGEOM = YES
*STATIC
*TEMPERATURE,FILE=6x033_therm, BSTEP=66
**SOLUTION TECHNIQUE, TYPE = SEPARATED
*BOUNDARY, TYPE = DISPLACEMENT
BUILD_PLATE, 1, 1 
BUILD_PLATE, 2, 2 
BUILD_PLATE, 3, 3 
*MODEL CHANGE, ADD = STRAIN FREE 
E_STEP_66
*RESTART, WRITE, FREQUENCY = 0
*OUTPUT, FIELD, VARIABLE = PRESELECT, NUMBER INTERVAL = 1 
*OUTPUT, HISTORY, VARIABLE = PRESELECT
*END STEP


*STEP,NAME = STEP_67, INC= 20000, NLGEOM = YES
*STATIC
*TEMPERATURE,FILE=6x033_therm, BSTEP=67
**SOLUTION TECHNIQUE, TYPE = SEPARATED
*BOUNDARY, TYPE = DISPLACEMENT
BUILD_PLATE, 1, 1 
BUILD_PLATE, 2, 2 
BUILD_PLATE, 3, 3 
*MODEL CHANGE, ADD = STRAIN FREE 
E_STEP_67
*RESTART, WRITE, FREQUENCY = 0
*OUTPUT, FIELD, VARIABLE = PRESELECT, NUMBER INTERVAL = 1 
*OUTPUT, HISTORY, VARIABLE = PRESELECT
*END STEP


*STEP,NAME = STEP_68, INC= 20000, NLGEOM = YES
*STATIC
*TEMPERATURE,FILE=6x033_therm, BSTEP=68
**SOLUTION TECHNIQUE, TYPE = SEPARATED
*BOUNDARY, TYPE = DISPLACEMENT
BUILD_PLATE, 1, 1 
BUILD_PLATE, 2, 2 
BUILD_PLATE, 3, 3 
*MODEL CHANGE, ADD = STRAIN FREE 
E_STEP_68
*RESTART, WRITE, FREQUENCY = 0
*OUTPUT, FIELD, VARIABLE = PRESELECT, NUMBER INTERVAL = 1 
*OUTPUT, HISTORY, VARIABLE = PRESELECT
*END STEP


*STEP,NAME = STEP_69, INC= 20000, NLGEOM = YES
*STATIC
*TEMPERATURE,FILE=6x033_therm, BSTEP=69
**SOLUTION TECHNIQUE, TYPE = SEPARATED
*BOUNDARY, TYPE = DISPLACEMENT
BUILD_PLATE, 1, 1 
BUILD_PLATE, 2, 2 
BUILD_PLATE, 3, 3 
*MODEL CHANGE, ADD = STRAIN FREE 
E_STEP_69
*RESTART, WRITE, FREQUENCY = 0
*OUTPUT, FIELD, VARIABLE = PRESELECT, NUMBER INTERVAL = 1 
*OUTPUT, HISTORY, VARIABLE = PRESELECT
*END STEP


*STEP,NAME = STEP_70, INC= 20000, NLGEOM = YES
*STATIC
*TEMPERATURE,FILE=6x033_therm, BSTEP=70
**SOLUTION TECHNIQUE, TYPE = SEPARATED
*BOUNDARY, TYPE = DISPLACEMENT
BUILD_PLATE, 1, 1 
BUILD_PLATE, 2, 2 
BUILD_PLATE, 3, 3 
*MODEL CHANGE, ADD = STRAIN FREE 
E_STEP_70
*RESTART, WRITE, FREQUENCY = 0
*OUTPUT, FIELD, VARIABLE = PRESELECT, NUMBER INTERVAL = 1 
*OUTPUT, HISTORY, VARIABLE = PRESELECT
*END STEP


*STEP,NAME = STEP_71, INC= 20000, NLGEOM = YES
*STATIC
*TEMPERATURE,FILE=6x033_therm, BSTEP=71
**SOLUTION TECHNIQUE, TYPE = SEPARATED
*BOUNDARY, TYPE = DISPLACEMENT
BUILD_PLATE, 1, 1 
BUILD_PLATE, 2, 2 
BUILD_PLATE, 3, 3 
*RESTART, WRITE, FREQUENCY = 0
*OUTPUT, FIELD, VARIABLE = PRESELECT, NUMBER INTERVAL = 1 
*OUTPUT, HISTORY, VARIABLE = PRESELECT
*END STEP


*STEP,NAME = STEP_72, INC= 20000, NLGEOM = YES
*STATIC
*TEMPERATURE,FILE=6x033_therm, BSTEP=72
**SOLUTION TECHNIQUE, TYPE = SEPARATED
*BOUNDARY, TYPE = DISPLACEMENT
BUILD_PLATE, 1, 1 
BUILD_PLATE, 2, 2 
BUILD_PLATE, 3, 3 
*MODEL CHANGE, ADD = STRAIN FREE 
E_STEP_72
*RESTART, WRITE, FREQUENCY = 0
*OUTPUT, FIELD, VARIABLE = PRESELECT, NUMBER INTERVAL = 1 
*OUTPUT, HISTORY, VARIABLE = PRESELECT
*END STEP


*STEP,NAME = STEP_73, INC= 20000, NLGEOM = YES
*STATIC
*TEMPERATURE,FILE=6x033_therm, BSTEP=73
**SOLUTION TECHNIQUE, TYPE = SEPARATED
*BOUNDARY, TYPE = DISPLACEMENT
BUILD_PLATE, 1, 1 
BUILD_PLATE, 2, 2 
BUILD_PLATE, 3, 3 
*MODEL CHANGE, ADD = STRAIN FREE 
E_STEP_73
*RESTART, WRITE, FREQUENCY = 0
*OUTPUT, FIELD, VARIABLE = PRESELECT, NUMBER INTERVAL = 1 
*OUTPUT, HISTORY, VARIABLE = PRESELECT
*END STEP


*STEP,NAME = STEP_74, INC= 20000, NLGEOM = YES
*STATIC
*TEMPERATURE,FILE=6x033_therm, BSTEP=74
**SOLUTION TECHNIQUE, TYPE = SEPARATED
*BOUNDARY, TYPE = DISPLACEMENT
BUILD_PLATE, 1, 1 
BUILD_PLATE, 2, 2 
BUILD_PLATE, 3, 3 
*MODEL CHANGE, ADD = STRAIN FREE 
E_STEP_74
*RESTART, WRITE, FREQUENCY = 0
*OUTPUT, FIELD, VARIABLE = PRESELECT, NUMBER INTERVAL = 1 
*OUTPUT, HISTORY, VARIABLE = PRESELECT
*END STEP


*STEP,NAME = STEP_75, INC= 20000, NLGEOM = YES
*STATIC
*TEMPERATURE,FILE=6x033_therm, BSTEP=75
**SOLUTION TECHNIQUE, TYPE = SEPARATED
*BOUNDARY, TYPE = DISPLACEMENT
BUILD_PLATE, 1, 1 
BUILD_PLATE, 2, 2 
BUILD_PLATE, 3, 3 
*MODEL CHANGE, ADD = STRAIN FREE 
E_STEP_75
*RESTART, WRITE, FREQUENCY = 0
*OUTPUT, FIELD, VARIABLE = PRESELECT, NUMBER INTERVAL = 1 
*OUTPUT, HISTORY, VARIABLE = PRESELECT
*END STEP


*STEP,NAME = STEP_76, INC= 20000, NLGEOM = YES
*STATIC
*TEMPERATURE,FILE=6x033_therm, BSTEP=76
**SOLUTION TECHNIQUE, TYPE = SEPARATED
*BOUNDARY, TYPE = DISPLACEMENT
BUILD_PLATE, 1, 1 
BUILD_PLATE, 2, 2 
BUILD_PLATE, 3, 3 
*MODEL CHANGE, ADD = STRAIN FREE 
E_STEP_76
*RESTART, WRITE, FREQUENCY = 0
*OUTPUT, FIELD, VARIABLE = PRESELECT, NUMBER INTERVAL = 1 
*OUTPUT, HISTORY, VARIABLE = PRESELECT
*END STEP


*STEP,NAME = STEP_77, INC= 20000, NLGEOM = YES
*STATIC
*TEMPERATURE,FILE=6x033_therm, BSTEP=77
**SOLUTION TECHNIQUE, TYPE = SEPARATED
*BOUNDARY, TYPE = DISPLACEMENT
BUILD_PLATE, 1, 1 
BUILD_PLATE, 2, 2 
BUILD_PLATE, 3, 3 
*MODEL CHANGE, ADD = STRAIN FREE 
E_STEP_77
*RESTART, WRITE, FREQUENCY = 0
*OUTPUT, FIELD, VARIABLE = PRESELECT, NUMBER INTERVAL = 1 
*OUTPUT, HISTORY, VARIABLE = PRESELECT
*END STEP


*STEP,NAME = STEP_78, INC= 20000, NLGEOM = YES
*STATIC
*TEMPERATURE,FILE=6x033_therm, BSTEP=78
**SOLUTION TECHNIQUE, TYPE = SEPARATED
*BOUNDARY, TYPE = DISPLACEMENT
BUILD_PLATE, 1, 1 
BUILD_PLATE, 2, 2 
BUILD_PLATE, 3, 3 
*RESTART, WRITE, FREQUENCY = 0
*OUTPUT, FIELD, VARIABLE = PRESELECT, NUMBER INTERVAL = 1 
*OUTPUT, HISTORY, VARIABLE = PRESELECT
*END STEP


*STEP,NAME = STEP_79, INC= 20000, NLGEOM = YES
*STATIC
*TEMPERATURE,FILE=6x033_therm, BSTEP=79
**SOLUTION TECHNIQUE, TYPE = SEPARATED
*BOUNDARY, TYPE = DISPLACEMENT
BUILD_PLATE, 1, 1 
BUILD_PLATE, 2, 2 
BUILD_PLATE, 3, 3 
*MODEL CHANGE, ADD = STRAIN FREE 
E_STEP_79
*RESTART, WRITE, FREQUENCY = 0
*OUTPUT, FIELD, VARIABLE = PRESELECT, NUMBER INTERVAL = 1 
*OUTPUT, HISTORY, VARIABLE = PRESELECT
*END STEP


*STEP,NAME = STEP_80, INC= 20000, NLGEOM = YES
*STATIC
*TEMPERATURE,FILE=6x033_therm, BSTEP=80
**SOLUTION TECHNIQUE, TYPE = SEPARATED
*BOUNDARY, TYPE = DISPLACEMENT
BUILD_PLATE, 1, 1 
BUILD_PLATE, 2, 2 
BUILD_PLATE, 3, 3 
*MODEL CHANGE, ADD = STRAIN FREE 
E_STEP_80
*RESTART, WRITE, FREQUENCY = 0
*OUTPUT, FIELD, VARIABLE = PRESELECT, NUMBER INTERVAL = 1 
*OUTPUT, HISTORY, VARIABLE = PRESELECT
*END STEP


*STEP,NAME = STEP_81, INC= 20000, NLGEOM = YES
*STATIC
*TEMPERATURE,FILE=6x033_therm, BSTEP=81
**SOLUTION TECHNIQUE, TYPE = SEPARATED
*BOUNDARY, TYPE = DISPLACEMENT
BUILD_PLATE, 1, 1 
BUILD_PLATE, 2, 2 
BUILD_PLATE, 3, 3 
*MODEL CHANGE, ADD = STRAIN FREE 
E_STEP_81
*RESTART, WRITE, FREQUENCY = 0
*OUTPUT, FIELD, VARIABLE = PRESELECT, NUMBER INTERVAL = 1 
*OUTPUT, HISTORY, VARIABLE = PRESELECT
*END STEP


*STEP,NAME = STEP_82, INC= 20000, NLGEOM = YES
*STATIC
*TEMPERATURE,FILE=6x033_therm, BSTEP=82
**SOLUTION TECHNIQUE, TYPE = SEPARATED
*BOUNDARY, TYPE = DISPLACEMENT
BUILD_PLATE, 1, 1 
BUILD_PLATE, 2, 2 
BUILD_PLATE, 3, 3 
*MODEL CHANGE, ADD = STRAIN FREE 
E_STEP_82
*RESTART, WRITE, FREQUENCY = 0
*OUTPUT, FIELD, VARIABLE = PRESELECT, NUMBER INTERVAL = 1 
*OUTPUT, HISTORY, VARIABLE = PRESELECT
*END STEP


*STEP,NAME = STEP_83, INC= 20000, NLGEOM = YES
*STATIC
*TEMPERATURE,FILE=6x033_therm, BSTEP=83
**SOLUTION TECHNIQUE, TYPE = SEPARATED
*BOUNDARY, TYPE = DISPLACEMENT
BUILD_PLATE, 1, 1 
BUILD_PLATE, 2, 2 
BUILD_PLATE, 3, 3 
*MODEL CHANGE, ADD = STRAIN FREE 
E_STEP_83
*RESTART, WRITE, FREQUENCY = 0
*OUTPUT, FIELD, VARIABLE = PRESELECT, NUMBER INTERVAL = 1 
*OUTPUT, HISTORY, VARIABLE = PRESELECT
*END STEP


*STEP,NAME = STEP_84, INC= 20000, NLGEOM = YES
*STATIC
*TEMPERATURE,FILE=6x033_therm, BSTEP=84
**SOLUTION TECHNIQUE, TYPE = SEPARATED
*BOUNDARY, TYPE = DISPLACEMENT
BUILD_PLATE, 1, 1 
BUILD_PLATE, 2, 2 
BUILD_PLATE, 3, 3 
*MODEL CHANGE, ADD = STRAIN FREE 
E_STEP_84
*RESTART, WRITE, FREQUENCY = 0
*OUTPUT, FIELD, VARIABLE = PRESELECT, NUMBER INTERVAL = 1 
*OUTPUT, HISTORY, VARIABLE = PRESELECT
*END STEP


*STEP,NAME = STEP_85, INC= 20000, NLGEOM = YES
*STATIC
*TEMPERATURE,FILE=6x033_therm, BSTEP=85
**SOLUTION TECHNIQUE, TYPE = SEPARATED
*BOUNDARY, TYPE = DISPLACEMENT
BUILD_PLATE, 1, 1 
BUILD_PLATE, 2, 2 
BUILD_PLATE, 3, 3 
*RESTART, WRITE, FREQUENCY = 0
*OUTPUT, FIELD, VARIABLE = PRESELECT, NUMBER INTERVAL = 1 
*OUTPUT, HISTORY, VARIABLE = PRESELECT
*END STEP


*STEP,NAME = STEP_86, INC= 20000, NLGEOM = YES
*STATIC
*TEMPERATURE,FILE=6x033_therm, BSTEP=86
**SOLUTION TECHNIQUE, TYPE = SEPARATED
*BOUNDARY, TYPE = DISPLACEMENT
BUILD_PLATE, 1, 1 
BUILD_PLATE, 2, 2 
BUILD_PLATE, 3, 3 
*RESTART, WRITE, FREQUENCY = 0
*OUTPUT, FIELD, VARIABLE = PRESELECT, NUMBER INTERVAL = 1 
*OUTPUT, HISTORY, VARIABLE = PRESELECT
*END STEP


*STEP,NAME = STEP_87, INC= 20000, NLGEOM = YES
*STATIC
*TEMPERATURE,FILE=6x033_therm, BSTEP=87
**SOLUTION TECHNIQUE, TYPE = SEPARATED
*BOUNDARY, TYPE = DISPLACEMENT
BUILD_PLATE, 1, 1 
BUILD_PLATE, 2, 2 
BUILD_PLATE, 3, 3 
*MODEL CHANGE, ADD = STRAIN FREE 
E_STEP_87
*RESTART, WRITE, FREQUENCY = 0
*OUTPUT, FIELD, VARIABLE = PRESELECT, NUMBER INTERVAL = 1 
*OUTPUT, HISTORY, VARIABLE = PRESELECT
*END STEP


*STEP,NAME = STEP_88, INC= 20000, NLGEOM = YES
*STATIC
*TEMPERATURE,FILE=6x033_therm, BSTEP=88
**SOLUTION TECHNIQUE, TYPE = SEPARATED
*BOUNDARY, TYPE = DISPLACEMENT
BUILD_PLATE, 1, 1 
BUILD_PLATE, 2, 2 
BUILD_PLATE, 3, 3 
*MODEL CHANGE, ADD = STRAIN FREE 
E_STEP_88
*RESTART, WRITE, FREQUENCY = 0
*OUTPUT, FIELD, VARIABLE = PRESELECT, NUMBER INTERVAL = 1 
*OUTPUT, HISTORY, VARIABLE = PRESELECT
*END STEP


*STEP,NAME = STEP_89, INC= 20000, NLGEOM = YES
*STATIC
*TEMPERATURE,FILE=6x033_therm, BSTEP=89
**SOLUTION TECHNIQUE, TYPE = SEPARATED
*BOUNDARY, TYPE = DISPLACEMENT
BUILD_PLATE, 1, 1 
BUILD_PLATE, 2, 2 
BUILD_PLATE, 3, 3 
*MODEL CHANGE, ADD = STRAIN FREE 
E_STEP_89
*RESTART, WRITE, FREQUENCY = 0
*OUTPUT, FIELD, VARIABLE = PRESELECT, NUMBER INTERVAL = 1 
*OUTPUT, HISTORY, VARIABLE = PRESELECT
*END STEP


*STEP,NAME = STEP_90, INC= 20000, NLGEOM = YES
*STATIC
*TEMPERATURE,FILE=6x033_therm, BSTEP=90
**SOLUTION TECHNIQUE, TYPE = SEPARATED
*BOUNDARY, TYPE = DISPLACEMENT
BUILD_PLATE, 1, 1 
BUILD_PLATE, 2, 2 
BUILD_PLATE, 3, 3 
*MODEL CHANGE, ADD = STRAIN FREE 
E_STEP_90
*RESTART, WRITE, FREQUENCY = 0
*OUTPUT, FIELD, VARIABLE = PRESELECT, NUMBER INTERVAL = 1 
*OUTPUT, HISTORY, VARIABLE = PRESELECT
*END STEP


*STEP,NAME = STEP_91, INC= 20000, NLGEOM = YES
*STATIC
*TEMPERATURE,FILE=6x033_therm, BSTEP=91
**SOLUTION TECHNIQUE, TYPE = SEPARATED
*BOUNDARY, TYPE = DISPLACEMENT
BUILD_PLATE, 1, 1 
BUILD_PLATE, 2, 2 
BUILD_PLATE, 3, 3 
*MODEL CHANGE, ADD = STRAIN FREE 
E_STEP_91
*RESTART, WRITE, FREQUENCY = 0
*OUTPUT, FIELD, VARIABLE = PRESELECT, NUMBER INTERVAL = 1 
*OUTPUT, HISTORY, VARIABLE = PRESELECT
*END STEP


*STEP,NAME = STEP_92, INC= 20000, NLGEOM = YES
*STATIC
*TEMPERATURE,FILE=6x033_therm, BSTEP=92
**SOLUTION TECHNIQUE, TYPE = SEPARATED
*BOUNDARY, TYPE = DISPLACEMENT
BUILD_PLATE, 1, 1 
BUILD_PLATE, 2, 2 
BUILD_PLATE, 3, 3 
*MODEL CHANGE, ADD = STRAIN FREE 
E_STEP_92
*RESTART, WRITE, FREQUENCY = 0
*OUTPUT, FIELD, VARIABLE = PRESELECT, NUMBER INTERVAL = 1 
*OUTPUT, HISTORY, VARIABLE = PRESELECT
*END STEP


*STEP,NAME = STEP_93, INC= 20000, NLGEOM = YES
*STATIC
*TEMPERATURE,FILE=6x033_therm, BSTEP=93
**SOLUTION TECHNIQUE, TYPE = SEPARATED
*BOUNDARY, TYPE = DISPLACEMENT
BUILD_PLATE, 1, 1 
BUILD_PLATE, 2, 2 
BUILD_PLATE, 3, 3 
*RESTART, WRITE, FREQUENCY = 0
*OUTPUT, FIELD, VARIABLE = PRESELECT, NUMBER INTERVAL = 1 
*OUTPUT, HISTORY, VARIABLE = PRESELECT
*END STEP


*STEP,NAME = STEP_94, INC= 20000, NLGEOM = YES
*STATIC
*TEMPERATURE,FILE=6x033_therm, BSTEP=94
**SOLUTION TECHNIQUE, TYPE = SEPARATED
*BOUNDARY, TYPE = DISPLACEMENT
BUILD_PLATE, 1, 1 
BUILD_PLATE, 2, 2 
BUILD_PLATE, 3, 3 
*MODEL CHANGE, ADD = STRAIN FREE 
E_STEP_94
*RESTART, WRITE, FREQUENCY = 0
*OUTPUT, FIELD, VARIABLE = PRESELECT, NUMBER INTERVAL = 1 
*OUTPUT, HISTORY, VARIABLE = PRESELECT
*END STEP


*STEP,NAME = STEP_95, INC= 20000, NLGEOM = YES
*STATIC
*TEMPERATURE,FILE=6x033_therm, BSTEP=95
**SOLUTION TECHNIQUE, TYPE = SEPARATED
*BOUNDARY, TYPE = DISPLACEMENT
BUILD_PLATE, 1, 1 
BUILD_PLATE, 2, 2 
BUILD_PLATE, 3, 3 
*MODEL CHANGE, ADD = STRAIN FREE 
E_STEP_95
*RESTART, WRITE, FREQUENCY = 0
*OUTPUT, FIELD, VARIABLE = PRESELECT, NUMBER INTERVAL = 1 
*OUTPUT, HISTORY, VARIABLE = PRESELECT
*END STEP


*STEP,NAME = STEP_96, INC= 20000, NLGEOM = YES
*STATIC
*TEMPERATURE,FILE=6x033_therm, BSTEP=96
**SOLUTION TECHNIQUE, TYPE = SEPARATED
*BOUNDARY, TYPE = DISPLACEMENT
BUILD_PLATE, 1, 1 
BUILD_PLATE, 2, 2 
BUILD_PLATE, 3, 3 
*MODEL CHANGE, ADD = STRAIN FREE 
E_STEP_96
*RESTART, WRITE, FREQUENCY = 0
*OUTPUT, FIELD, VARIABLE = PRESELECT, NUMBER INTERVAL = 1 
*OUTPUT, HISTORY, VARIABLE = PRESELECT
*END STEP


*STEP,NAME = STEP_97, INC= 20000, NLGEOM = YES
*STATIC
*TEMPERATURE,FILE=6x033_therm, BSTEP=97
**SOLUTION TECHNIQUE, TYPE = SEPARATED
*BOUNDARY, TYPE = DISPLACEMENT
BUILD_PLATE, 1, 1 
BUILD_PLATE, 2, 2 
BUILD_PLATE, 3, 3 
*MODEL CHANGE, ADD = STRAIN FREE 
E_STEP_97
*RESTART, WRITE, FREQUENCY = 0
*OUTPUT, FIELD, VARIABLE = PRESELECT, NUMBER INTERVAL = 1 
*OUTPUT, HISTORY, VARIABLE = PRESELECT
*END STEP


*STEP,NAME = STEP_98, INC= 20000, NLGEOM = YES
*STATIC
*TEMPERATURE,FILE=6x033_therm, BSTEP=98
**SOLUTION TECHNIQUE, TYPE = SEPARATED
*BOUNDARY, TYPE = DISPLACEMENT
BUILD_PLATE, 1, 1 
BUILD_PLATE, 2, 2 
BUILD_PLATE, 3, 3 
*MODEL CHANGE, ADD = STRAIN FREE 
E_STEP_98
*RESTART, WRITE, FREQUENCY = 0
*OUTPUT, FIELD, VARIABLE = PRESELECT, NUMBER INTERVAL = 1 
*OUTPUT, HISTORY, VARIABLE = PRESELECT
*END STEP


*STEP,NAME = STEP_99, INC= 20000, NLGEOM = YES
*STATIC
*TEMPERATURE,FILE=6x033_therm, BSTEP=99
**SOLUTION TECHNIQUE, TYPE = SEPARATED
*BOUNDARY, TYPE = DISPLACEMENT
BUILD_PLATE, 1, 1 
BUILD_PLATE, 2, 2 
BUILD_PLATE, 3, 3 
*MODEL CHANGE, ADD = STRAIN FREE 
E_STEP_99
*RESTART, WRITE, FREQUENCY = 0
*OUTPUT, FIELD, VARIABLE = PRESELECT, NUMBER INTERVAL = 1 
*OUTPUT, HISTORY, VARIABLE = PRESELECT
*END STEP


*STEP,NAME = STEP_100, INC= 20000, NLGEOM = YES
*STATIC
*TEMPERATURE,FILE=6x033_therm, BSTEP=100
**SOLUTION TECHNIQUE, TYPE = SEPARATED
*BOUNDARY, TYPE = DISPLACEMENT
BUILD_PLATE, 1, 1 
BUILD_PLATE, 2, 2 
BUILD_PLATE, 3, 3 
*RESTART, WRITE, FREQUENCY = 0
*OUTPUT, FIELD, VARIABLE = PRESELECT, NUMBER INTERVAL = 1 
*OUTPUT, HISTORY, VARIABLE = PRESELECT
*END STEP


*STEP,NAME = STEP_101, INC= 20000, NLGEOM = YES
*STATIC
*TEMPERATURE,FILE=6x033_therm, BSTEP=101
**SOLUTION TECHNIQUE, TYPE = SEPARATED
*BOUNDARY, TYPE = DISPLACEMENT
BUILD_PLATE, 1, 1 
BUILD_PLATE, 2, 2 
BUILD_PLATE, 3, 3 
*MODEL CHANGE, ADD = STRAIN FREE 
E_STEP_101
*RESTART, WRITE, FREQUENCY = 0
*OUTPUT, FIELD, VARIABLE = PRESELECT, NUMBER INTERVAL = 1 
*OUTPUT, HISTORY, VARIABLE = PRESELECT
*END STEP


*STEP,NAME = STEP_102, INC= 20000, NLGEOM = YES
*STATIC
*TEMPERATURE,FILE=6x033_therm, BSTEP=102
**SOLUTION TECHNIQUE, TYPE = SEPARATED
*BOUNDARY, TYPE = DISPLACEMENT
BUILD_PLATE, 1, 1 
BUILD_PLATE, 2, 2 
BUILD_PLATE, 3, 3 
*MODEL CHANGE, ADD = STRAIN FREE 
E_STEP_102
*RESTART, WRITE, FREQUENCY = 0
*OUTPUT, FIELD, VARIABLE = PRESELECT, NUMBER INTERVAL = 1 
*OUTPUT, HISTORY, VARIABLE = PRESELECT
*END STEP


*STEP,NAME = STEP_103, INC= 20000, NLGEOM = YES
*STATIC
*TEMPERATURE,FILE=6x033_therm, BSTEP=103
**SOLUTION TECHNIQUE, TYPE = SEPARATED
*BOUNDARY, TYPE = DISPLACEMENT
BUILD_PLATE, 1, 1 
BUILD_PLATE, 2, 2 
BUILD_PLATE, 3, 3 
*MODEL CHANGE, ADD = STRAIN FREE 
E_STEP_103
*RESTART, WRITE, FREQUENCY = 0
*OUTPUT, FIELD, VARIABLE = PRESELECT, NUMBER INTERVAL = 1 
*OUTPUT, HISTORY, VARIABLE = PRESELECT
*END STEP


*STEP,NAME = STEP_104, INC= 20000, NLGEOM = YES
*STATIC
*TEMPERATURE,FILE=6x033_therm, BSTEP=104
**SOLUTION TECHNIQUE, TYPE = SEPARATED
*BOUNDARY, TYPE = DISPLACEMENT
BUILD_PLATE, 1, 1 
BUILD_PLATE, 2, 2 
BUILD_PLATE, 3, 3 
*MODEL CHANGE, ADD = STRAIN FREE 
E_STEP_104
*RESTART, WRITE, FREQUENCY = 0
*OUTPUT, FIELD, VARIABLE = PRESELECT, NUMBER INTERVAL = 1 
*OUTPUT, HISTORY, VARIABLE = PRESELECT
*END STEP


*STEP,NAME = STEP_105, INC= 20000, NLGEOM = YES
*STATIC
*TEMPERATURE,FILE=6x033_therm, BSTEP=105
**SOLUTION TECHNIQUE, TYPE = SEPARATED
*BOUNDARY, TYPE = DISPLACEMENT
BUILD_PLATE, 1, 1 
BUILD_PLATE, 2, 2 
BUILD_PLATE, 3, 3 
*MODEL CHANGE, ADD = STRAIN FREE 
E_STEP_105
*RESTART, WRITE, FREQUENCY = 0
*OUTPUT, FIELD, VARIABLE = PRESELECT, NUMBER INTERVAL = 1 
*OUTPUT, HISTORY, VARIABLE = PRESELECT
*END STEP


*STEP,NAME = STEP_106, INC= 20000, NLGEOM = YES
*STATIC
*TEMPERATURE,FILE=6x033_therm, BSTEP=106
**SOLUTION TECHNIQUE, TYPE = SEPARATED
*BOUNDARY, TYPE = DISPLACEMENT
BUILD_PLATE, 1, 1 
BUILD_PLATE, 2, 2 
BUILD_PLATE, 3, 3 
*MODEL CHANGE, ADD = STRAIN FREE 
E_STEP_106
*RESTART, WRITE, FREQUENCY = 0
*OUTPUT, FIELD, VARIABLE = PRESELECT, NUMBER INTERVAL = 1 
*OUTPUT, HISTORY, VARIABLE = PRESELECT
*END STEP


*STEP,NAME = STEP_107, INC= 20000, NLGEOM = YES
*STATIC
*TEMPERATURE,FILE=6x033_therm, BSTEP=107
**SOLUTION TECHNIQUE, TYPE = SEPARATED
*BOUNDARY, TYPE = DISPLACEMENT
BUILD_PLATE, 1, 1 
BUILD_PLATE, 2, 2 
BUILD_PLATE, 3, 3 
*RESTART, WRITE, FREQUENCY = 0
*OUTPUT, FIELD, VARIABLE = PRESELECT, NUMBER INTERVAL = 1 
*OUTPUT, HISTORY, VARIABLE = PRESELECT
*END STEP


*STEP,NAME = STEP_108, INC= 20000, NLGEOM = YES
*STATIC
*TEMPERATURE,FILE=6x033_therm, BSTEP=108
**SOLUTION TECHNIQUE, TYPE = SEPARATED
*BOUNDARY, TYPE = DISPLACEMENT
BUILD_PLATE, 1, 1 
BUILD_PLATE, 2, 2 
BUILD_PLATE, 3, 3 
*MODEL CHANGE, ADD = STRAIN FREE 
E_STEP_108
*RESTART, WRITE, FREQUENCY = 0
*OUTPUT, FIELD, VARIABLE = PRESELECT, NUMBER INTERVAL = 1 
*OUTPUT, HISTORY, VARIABLE = PRESELECT
*END STEP


*STEP,NAME = STEP_109, INC= 20000, NLGEOM = YES
*STATIC
*TEMPERATURE,FILE=6x033_therm, BSTEP=109
**SOLUTION TECHNIQUE, TYPE = SEPARATED
*BOUNDARY, TYPE = DISPLACEMENT
BUILD_PLATE, 1, 1 
BUILD_PLATE, 2, 2 
BUILD_PLATE, 3, 3 
*MODEL CHANGE, ADD = STRAIN FREE 
E_STEP_109
*RESTART, WRITE, FREQUENCY = 0
*OUTPUT, FIELD, VARIABLE = PRESELECT, NUMBER INTERVAL = 1 
*OUTPUT, HISTORY, VARIABLE = PRESELECT
*END STEP


*STEP,NAME = STEP_110, INC= 20000, NLGEOM = YES
*STATIC
*TEMPERATURE,FILE=6x033_therm, BSTEP=110
**SOLUTION TECHNIQUE, TYPE = SEPARATED
*BOUNDARY, TYPE = DISPLACEMENT
BUILD_PLATE, 1, 1 
BUILD_PLATE, 2, 2 
BUILD_PLATE, 3, 3 
*MODEL CHANGE, ADD = STRAIN FREE 
E_STEP_110
*RESTART, WRITE, FREQUENCY = 0
*OUTPUT, FIELD, VARIABLE = PRESELECT, NUMBER INTERVAL = 1 
*OUTPUT, HISTORY, VARIABLE = PRESELECT
*END STEP


*STEP,NAME = STEP_111, INC= 20000, NLGEOM = YES
*STATIC
*TEMPERATURE,FILE=6x033_therm, BSTEP=111
**SOLUTION TECHNIQUE, TYPE = SEPARATED
*BOUNDARY, TYPE = DISPLACEMENT
BUILD_PLATE, 1, 1 
BUILD_PLATE, 2, 2 
BUILD_PLATE, 3, 3 
*MODEL CHANGE, ADD = STRAIN FREE 
E_STEP_111
*RESTART, WRITE, FREQUENCY = 0
*OUTPUT, FIELD, VARIABLE = PRESELECT, NUMBER INTERVAL = 1 
*OUTPUT, HISTORY, VARIABLE = PRESELECT
*END STEP


*STEP,NAME = STEP_112, INC= 20000, NLGEOM = YES
*STATIC
*TEMPERATURE,FILE=6x033_therm, BSTEP=112
**SOLUTION TECHNIQUE, TYPE = SEPARATED
*BOUNDARY, TYPE = DISPLACEMENT
BUILD_PLATE, 1, 1 
BUILD_PLATE, 2, 2 
BUILD_PLATE, 3, 3 
*MODEL CHANGE, ADD = STRAIN FREE 
E_STEP_112
*RESTART, WRITE, FREQUENCY = 0
*OUTPUT, FIELD, VARIABLE = PRESELECT, NUMBER INTERVAL = 1 
*OUTPUT, HISTORY, VARIABLE = PRESELECT
*END STEP


*STEP,NAME = STEP_113, INC= 20000, NLGEOM = YES
*STATIC
*TEMPERATURE,FILE=6x033_therm, BSTEP=113
**SOLUTION TECHNIQUE, TYPE = SEPARATED
*BOUNDARY, TYPE = DISPLACEMENT
BUILD_PLATE, 1, 1 
BUILD_PLATE, 2, 2 
BUILD_PLATE, 3, 3 
*MODEL CHANGE, ADD = STRAIN FREE 
E_STEP_113
*RESTART, WRITE, FREQUENCY = 0
*OUTPUT, FIELD, VARIABLE = PRESELECT, NUMBER INTERVAL = 1 
*OUTPUT, HISTORY, VARIABLE = PRESELECT
*END STEP


*STEP,NAME = STEP_114, INC= 20000, NLGEOM = YES
*STATIC
*TEMPERATURE,FILE=6x033_therm, BSTEP=114
**SOLUTION TECHNIQUE, TYPE = SEPARATED
*BOUNDARY, TYPE = DISPLACEMENT
BUILD_PLATE, 1, 1 
BUILD_PLATE, 2, 2 
BUILD_PLATE, 3, 3 
*RESTART, WRITE, FREQUENCY = 0
*OUTPUT, FIELD, VARIABLE = PRESELECT, NUMBER INTERVAL = 1 
*OUTPUT, HISTORY, VARIABLE = PRESELECT
*END STEP


*STEP,NAME = STEP_115, INC= 20000, NLGEOM = YES
*STATIC
*TEMPERATURE,FILE=6x033_therm, BSTEP=115
**SOLUTION TECHNIQUE, TYPE = SEPARATED
*BOUNDARY, TYPE = DISPLACEMENT
BUILD_PLATE, 1, 1 
BUILD_PLATE, 2, 2 
BUILD_PLATE, 3, 3 
*MODEL CHANGE, ADD = STRAIN FREE 
E_STEP_115
*RESTART, WRITE, FREQUENCY = 0
*OUTPUT, FIELD, VARIABLE = PRESELECT, NUMBER INTERVAL = 1 
*OUTPUT, HISTORY, VARIABLE = PRESELECT
*END STEP


*STEP,NAME = STEP_116, INC= 20000, NLGEOM = YES
*STATIC
*TEMPERATURE,FILE=6x033_therm, BSTEP=116
**SOLUTION TECHNIQUE, TYPE = SEPARATED
*BOUNDARY, TYPE = DISPLACEMENT
BUILD_PLATE, 1, 1 
BUILD_PLATE, 2, 2 
BUILD_PLATE, 3, 3 
*MODEL CHANGE, ADD = STRAIN FREE 
E_STEP_116
*RESTART, WRITE, FREQUENCY = 0
*OUTPUT, FIELD, VARIABLE = PRESELECT, NUMBER INTERVAL = 1 
*OUTPUT, HISTORY, VARIABLE = PRESELECT
*END STEP


*STEP,NAME = STEP_117, INC= 20000, NLGEOM = YES
*STATIC
*TEMPERATURE,FILE=6x033_therm, BSTEP=117
**SOLUTION TECHNIQUE, TYPE = SEPARATED
*BOUNDARY, TYPE = DISPLACEMENT
BUILD_PLATE, 1, 1 
BUILD_PLATE, 2, 2 
BUILD_PLATE, 3, 3 
*MODEL CHANGE, ADD = STRAIN FREE 
E_STEP_117
*RESTART, WRITE, FREQUENCY = 0
*OUTPUT, FIELD, VARIABLE = PRESELECT, NUMBER INTERVAL = 1 
*OUTPUT, HISTORY, VARIABLE = PRESELECT
*END STEP


*STEP,NAME = STEP_118, INC= 20000, NLGEOM = YES
*STATIC
*TEMPERATURE,FILE=6x033_therm, BSTEP=118
**SOLUTION TECHNIQUE, TYPE = SEPARATED
*BOUNDARY, TYPE = DISPLACEMENT
BUILD_PLATE, 1, 1 
BUILD_PLATE, 2, 2 
BUILD_PLATE, 3, 3 
*MODEL CHANGE, ADD = STRAIN FREE 
E_STEP_118
*RESTART, WRITE, FREQUENCY = 0
*OUTPUT, FIELD, VARIABLE = PRESELECT, NUMBER INTERVAL = 1 
*OUTPUT, HISTORY, VARIABLE = PRESELECT
*END STEP


*STEP,NAME = STEP_119, INC= 20000, NLGEOM = YES
*STATIC
*TEMPERATURE,FILE=6x033_therm, BSTEP=119
**SOLUTION TECHNIQUE, TYPE = SEPARATED
*BOUNDARY, TYPE = DISPLACEMENT
BUILD_PLATE, 1, 1 
BUILD_PLATE, 2, 2 
BUILD_PLATE, 3, 3 
*MODEL CHANGE, ADD = STRAIN FREE 
E_STEP_119
*RESTART, WRITE, FREQUENCY = 0
*OUTPUT, FIELD, VARIABLE = PRESELECT, NUMBER INTERVAL = 1 
*OUTPUT, HISTORY, VARIABLE = PRESELECT
*END STEP


*STEP,NAME = STEP_120, INC= 20000, NLGEOM = YES
*STATIC
*TEMPERATURE,FILE=6x033_therm, BSTEP=120
**SOLUTION TECHNIQUE, TYPE = SEPARATED
*BOUNDARY, TYPE = DISPLACEMENT
BUILD_PLATE, 1, 1 
BUILD_PLATE, 2, 2 
BUILD_PLATE, 3, 3 
*MODEL CHANGE, ADD = STRAIN FREE 
E_STEP_120
*RESTART, WRITE, FREQUENCY = 0
*OUTPUT, FIELD, VARIABLE = PRESELECT, NUMBER INTERVAL = 1 
*OUTPUT, HISTORY, VARIABLE = PRESELECT
*END STEP


*STEP,NAME = STEP_121, INC= 20000, NLGEOM = YES
*STATIC
*TEMPERATURE,FILE=6x033_therm, BSTEP=121
**SOLUTION TECHNIQUE, TYPE = SEPARATED
*BOUNDARY, TYPE = DISPLACEMENT
BUILD_PLATE, 1, 1 
BUILD_PLATE, 2, 2 
BUILD_PLATE, 3, 3 
*RESTART, WRITE, FREQUENCY = 0
*OUTPUT, FIELD, VARIABLE = PRESELECT, NUMBER INTERVAL = 1 
*OUTPUT, HISTORY, VARIABLE = PRESELECT
*END STEP


*STEP,NAME = STEP_122, INC= 20000, NLGEOM = YES
*STATIC
*TEMPERATURE,FILE=6x033_therm, BSTEP=122
**SOLUTION TECHNIQUE, TYPE = SEPARATED
*BOUNDARY, TYPE = DISPLACEMENT
BUILD_PLATE, 1, 1 
BUILD_PLATE, 2, 2 
BUILD_PLATE, 3, 3 
*MODEL CHANGE, ADD = STRAIN FREE 
E_STEP_122
*RESTART, WRITE, FREQUENCY = 0
*OUTPUT, FIELD, VARIABLE = PRESELECT, NUMBER INTERVAL = 1 
*OUTPUT, HISTORY, VARIABLE = PRESELECT
*END STEP


*STEP,NAME = STEP_123, INC= 20000, NLGEOM = YES
*STATIC
*TEMPERATURE,FILE=6x033_therm, BSTEP=123
**SOLUTION TECHNIQUE, TYPE = SEPARATED
*BOUNDARY, TYPE = DISPLACEMENT
BUILD_PLATE, 1, 1 
BUILD_PLATE, 2, 2 
BUILD_PLATE, 3, 3 
*MODEL CHANGE, ADD = STRAIN FREE 
E_STEP_123
*RESTART, WRITE, FREQUENCY = 0
*OUTPUT, FIELD, VARIABLE = PRESELECT, NUMBER INTERVAL = 1 
*OUTPUT, HISTORY, VARIABLE = PRESELECT
*END STEP


*STEP,NAME = STEP_124, INC= 20000, NLGEOM = YES
*STATIC
*TEMPERATURE,FILE=6x033_therm, BSTEP=124
**SOLUTION TECHNIQUE, TYPE = SEPARATED
*BOUNDARY, TYPE = DISPLACEMENT
BUILD_PLATE, 1, 1 
BUILD_PLATE, 2, 2 
BUILD_PLATE, 3, 3 
*MODEL CHANGE, ADD = STRAIN FREE 
E_STEP_124
*RESTART, WRITE, FREQUENCY = 0
*OUTPUT, FIELD, VARIABLE = PRESELECT, NUMBER INTERVAL = 1 
*OUTPUT, HISTORY, VARIABLE = PRESELECT
*END STEP


*STEP,NAME = STEP_125, INC= 20000, NLGEOM = YES
*STATIC
*TEMPERATURE,FILE=6x033_therm, BSTEP=125
**SOLUTION TECHNIQUE, TYPE = SEPARATED
*BOUNDARY, TYPE = DISPLACEMENT
BUILD_PLATE, 1, 1 
BUILD_PLATE, 2, 2 
BUILD_PLATE, 3, 3 
*MODEL CHANGE, ADD = STRAIN FREE 
E_STEP_125
*RESTART, WRITE, FREQUENCY = 0
*OUTPUT, FIELD, VARIABLE = PRESELECT, NUMBER INTERVAL = 1 
*OUTPUT, HISTORY, VARIABLE = PRESELECT
*END STEP


*STEP,NAME = STEP_126, INC= 20000, NLGEOM = YES
*STATIC
*TEMPERATURE,FILE=6x033_therm, BSTEP=126
**SOLUTION TECHNIQUE, TYPE = SEPARATED
*BOUNDARY, TYPE = DISPLACEMENT
BUILD_PLATE, 1, 1 
BUILD_PLATE, 2, 2 
BUILD_PLATE, 3, 3 
*MODEL CHANGE, ADD = STRAIN FREE 
E_STEP_126
*RESTART, WRITE, FREQUENCY = 0
*OUTPUT, FIELD, VARIABLE = PRESELECT, NUMBER INTERVAL = 1 
*OUTPUT, HISTORY, VARIABLE = PRESELECT
*END STEP


*STEP,NAME = STEP_127, INC= 20000, NLGEOM = YES
*STATIC
*TEMPERATURE,FILE=6x033_therm, BSTEP=127
**SOLUTION TECHNIQUE, TYPE = SEPARATED
*BOUNDARY, TYPE = DISPLACEMENT
BUILD_PLATE, 1, 1 
BUILD_PLATE, 2, 2 
BUILD_PLATE, 3, 3 
*MODEL CHANGE, ADD = STRAIN FREE 
E_STEP_127
*RESTART, WRITE, FREQUENCY = 0
*OUTPUT, FIELD, VARIABLE = PRESELECT, NUMBER INTERVAL = 1 
*OUTPUT, HISTORY, VARIABLE = PRESELECT
*END STEP


*STEP,NAME = STEP_128, INC= 20000, NLGEOM = YES
*STATIC
*TEMPERATURE,FILE=6x033_therm, BSTEP=128
**SOLUTION TECHNIQUE, TYPE = SEPARATED
*BOUNDARY, TYPE = DISPLACEMENT
BUILD_PLATE, 1, 1 
BUILD_PLATE, 2, 2 
BUILD_PLATE, 3, 3 
*RESTART, WRITE, FREQUENCY = 0
*OUTPUT, FIELD, VARIABLE = PRESELECT, NUMBER INTERVAL = 1 
*OUTPUT, HISTORY, VARIABLE = PRESELECT
*END STEP


*STEP,NAME = STEP_129, INC= 20000, NLGEOM = YES
*STATIC
*TEMPERATURE,FILE=6x033_therm, BSTEP=129
**SOLUTION TECHNIQUE, TYPE = SEPARATED
*BOUNDARY, TYPE = DISPLACEMENT
BUILD_PLATE, 1, 1 
BUILD_PLATE, 2, 2 
BUILD_PLATE, 3, 3 
*RESTART, WRITE, FREQUENCY = 0
*OUTPUT, FIELD, VARIABLE = PRESELECT, NUMBER INTERVAL = 1 
*OUTPUT, HISTORY, VARIABLE = PRESELECT
*END STEP

** SERVICE LOADING OF THE PART **
*STEP,NAME = SERVICE, INC= 20000, NLGEOM = YES
*STATIC
*TEMPERATURE,FILE=6x033_therm, BSTEP=130
*BOUNDARY, OP = NEW
**REAR RIGHT NODE
7, 1,1
7, 2,2
7, 3,3
**FRONT LEFT NODE
403, 3,3
**REAR LEFT NODE
471, 3,3
471, 1,1
71, 3,3
*OUTPUT, FIELD, VARIABLE = PRESELECT, NUMBER INTERVAL = 1
*OUTPUT, HISTORY, VARIABLE = PRESELECT
*END STEP
	