**EXAMPLE FILE**
**@STRING@TEMPLATE='1BRICK'
**TIME STEPS FOR ELEMENTS AND STEPS
*NODE,NSET = ALLNODES
1	,-2.798317936051702e-20	,0.000457	,0.0 
2	,0.0	,0.0	,0.0 
3	,2.798317936051702e-20	,-0.000457	,0.0 
4	,-2.798317936051702e-20	,0.000457	,0.000127 
5	,2.798317936051702e-20	,-0.000457	,0.000127 
6	,-2.798317936051702e-20	,0.000457	,0.000254 
7	,0.0	,0.0	,0.000254 
8	,2.798317936051702e-20	,-0.000457	,0.000254 
9	,0.0009140000000000015	,0.000457	,0.0 
10	,0.0009140000000000015	,0.0	,0.0 
11	,0.0009140000000000015	,-0.000457	,0.0 
12	,0.0009140000000000015	,0.000457	,0.000127 
13	,0.0009140000000000015	,-0.000457	,0.000127 
14	,0.0009140000000000015	,0.000457	,0.000254 
15	,0.0009140000000000015	,0.0	,0.000254 
16	,0.0009140000000000015	,-0.000457	,0.000254 
17	,0.0004570000000000007	,0.000457	,0.0 
18	,0.0004570000000000008	,-0.000457	,0.0 
19	,0.0004570000000000007	,0.000457	,0.000254 
20	,0.0004570000000000008	,-0.000457	,0.000254 
** ... 659 like lines cut

*NSET, NSET = BUILD_PLATE
1,
2,
3,
9,
10,
11,
17,
18,
21,
22,
23,
29,
30,
33,
34,
35,
41,
42,
45,
46,
** ... 113 like lines cut
*ELEMENT,ELSET = ALLELEMENTS, TYPE = DC3D20
1,6,8,3,1,14,16,11,9,7,5,2,4,15,13,10,12,19,20,18,17
2,14,16,11,9,26,28,23,21,15,13,10,12,27,25,22,24,31,32,30,29
3,26,28,23,21,38,40,35,33,27,25,22,24,39,37,34,36,43,44,42,41
4,38,40,35,33,50,52,47,45,39,37,34,36,51,49,46,48,55,56,54,53
5,50,52,47,45,62,64,59,57,51,49,46,48,63,61,58,60,67,68,66,65
6,62,64,59,57,74,76,71,69,63,61,58,60,75,73,70,72,79,80,78,77
7,74,88,83,69,62,96,91,57,87,85,82,72,95,93,90,60,79,100,98,77
8,62,96,91,57,50,108,103,45,95,93,90,60,107,105,102,48,67,112,110,65
9,50,108,103,45,38,120,115,33,107,105,102,48,119,117,114,36,55,124,122,53
10,38,120,115,33,26,132,127,21,119,117,114,36,131,129,126,24,43,136,134,41
11,26,132,127,21,14,144,139,9,131,129,126,24,143,141,138,12,31,148,146,29
12,14,144,139,9,6,156,151,1,143,141,138,12,155,153,150,4,19,160,158,17
13,166,156,151,161,174,144,139,169,167,153,162,164,175,141,170,172,179,160,158,177
14,174,144,139,169,186,132,127,181,175,141,170,172,187,129,182,184,191,148,146,189
15,186,132,127,181,198,120,115,193,187,129,182,184,199,117,194,196,203,136,134,201
16,198,120,115,193,210,108,103,205,199,117,194,196,211,105,206,208,215,124,122,213
17,210,108,103,205,222,96,91,217,211,105,206,208,223,93,218,220,227,112,110,225
18,222,96,91,217,234,88,83,229,223,93,218,220,235,85,230,232,239,100,98,237
19,234,248,243,229,222,256,251,217,247,245,242,232,255,253,250,220,239,260,258,237
20,222,256,251,217,210,268,263,205,255,253,250,220,267,265,262,208,227,272,270,225
** ... 88 like lines cut
**ELEMENTS BY DEPOSISTION STEP
*ELSET, ELSET = E_STEP_1
1
*ELSET, ELSET = E_STEP_2
2
*ELSET, ELSET = E_STEP_3
3
*ELSET, ELSET = E_STEP_4
4
*ELSET, ELSET = E_STEP_5
5
*ELSET, ELSET = E_STEP_6
6
*ELSET, ELSET = E_STEP_8
7
*ELSET, ELSET = E_STEP_9
8
*ELSET, ELSET = E_STEP_10
9
*ELSET, ELSET = E_STEP_11
10
*ELSET, ELSET = E_STEP_12
11
*ELSET, ELSET = E_STEP_13
12
*ELSET, ELSET = E_STEP_15
13
*ELSET, ELSET = E_STEP_16
14
*ELSET, ELSET = E_STEP_17
15
*ELSET, ELSET = E_STEP_18
16
*ELSET, ELSET = E_STEP_19
17
*ELSET, ELSET = E_STEP_20
18
*ELSET, ELSET = E_STEP_22
19
*ELSET, ELSET = E_STEP_23
20
** ... 176 like lines cut
*SURFACE, NAME = UP_1, TYPE=ELEMENT
1, S3
*SURFACE, NAME = LEFT_1, TYPE=ELEMENT
1, S6
*SURFACE, NAME = RIGHT_1, TYPE=ELEMENT
1, S4
*SURFACE, NAME = UP_2, TYPE=ELEMENT
2, S3
*SURFACE, NAME = LEFT_2, TYPE=ELEMENT
2, S6
*SURFACE, NAME = RIGHT_2, TYPE=ELEMENT
2, S4
*SURFACE, NAME = UP_3, TYPE=ELEMENT
3, S3
*SURFACE, NAME = LEFT_3, TYPE=ELEMENT
3, S6
*SURFACE, NAME = RIGHT_3, TYPE=ELEMENT
3, S4
*SURFACE, NAME = UP_4, TYPE=ELEMENT
4, S3
*SURFACE, NAME = LEFT_4, TYPE=ELEMENT
4, S6
*SURFACE, NAME = RIGHT_4, TYPE=ELEMENT
4, S4
*SURFACE, NAME = UP_5, TYPE=ELEMENT
5, S3
*SURFACE, NAME = LEFT_5, TYPE=ELEMENT
5, S6
*SURFACE, NAME = RIGHT_5, TYPE=ELEMENT
5, S4
*SURFACE, NAME = UP_6, TYPE=ELEMENT
6, S3
*SURFACE, NAME = LEFT_6, TYPE=ELEMENT
6, S6
*SURFACE, NAME = RIGHT_6, TYPE=ELEMENT
6, S4
*SURFACE, NAME = UP_8, TYPE=ELEMENT
7, S3
*SURFACE, NAME = RIGHT_8, TYPE=ELEMENT
7, S4
*SURFACE, NAME = UP_9, TYPE=ELEMENT
8, S3
*SURFACE, NAME = RIGHT_9, TYPE=ELEMENT
8, S4
*SURFACE, NAME = UP_10, TYPE=ELEMENT
9, S3
*SURFACE, NAME = RIGHT_10, TYPE=ELEMENT
9, S4
*SURFACE, NAME = UP_11, TYPE=ELEMENT
10, S3
*SURFACE, NAME = RIGHT_11, TYPE=ELEMENT
10, S4
*SURFACE, NAME = UP_12, TYPE=ELEMENT
11, S3
*SURFACE, NAME = RIGHT_12, TYPE=ELEMENT
11, S4
*SURFACE, NAME = UP_13, TYPE=ELEMENT
12, S3
*SURFACE, NAME = RIGHT_13, TYPE=ELEMENT
12, S4
*SURFACE, NAME = UP_15, TYPE=ELEMENT
13, S3
*SURFACE, NAME = LEFT_15, TYPE=ELEMENT
13, S6
*SURFACE, NAME = UP_16, TYPE=ELEMENT
14, S3
*SURFACE, NAME = LEFT_16, TYPE=ELEMENT
14, S6
*SURFACE, NAME = UP_17, TYPE=ELEMENT
15, S3
*SURFACE, NAME = LEFT_17, TYPE=ELEMENT
15, S6
*SURFACE, NAME = UP_18, TYPE=ELEMENT
16, S3
*SURFACE, NAME = LEFT_18, TYPE=ELEMENT
16, S6
*SURFACE, NAME = UP_19, TYPE=ELEMENT
17, S3
*SURFACE, NAME = LEFT_19, TYPE=ELEMENT
17, S6
*SURFACE, NAME = UP_20, TYPE=ELEMENT
18, S3
*SURFACE, NAME = LEFT_20, TYPE=ELEMENT
18, S6
*SURFACE, NAME = UP_22, TYPE=ELEMENT
19, S3
*SURFACE, NAME = RIGHT_22, TYPE=ELEMENT
19, S4
*SURFACE, NAME = UP_23, TYPE=ELEMENT
20, S3
*SURFACE, NAME = RIGHT_23, TYPE=ELEMENT
20, S4
*SURFACE, NAME = UP_24, TYPE=ELEMENT
21, S3
*SURFACE, NAME = RIGHT_24, TYPE=ELEMENT
21, S4
*SURFACE, NAME = UP_25, TYPE=ELEMENT
22, S3
*SURFACE, NAME = RIGHT_25, TYPE=ELEMENT
22, S4
*SURFACE, NAME = UP_26, TYPE=ELEMENT
23, S3
*SURFACE, NAME = RIGHT_26, TYPE=ELEMENT
23, S4
*SURFACE, NAME = UP_27, TYPE=ELEMENT
24, S3
*SURFACE, NAME = RIGHT_27, TYPE=ELEMENT
24, S4
*SURFACE, NAME = UP_29, TYPE=ELEMENT
25, S3
*SURFACE, NAME = LEFT_29, TYPE=ELEMENT
25, S6
*SURFACE, NAME = UP_30, TYPE=ELEMENT
26, S3
*SURFACE, NAME = LEFT_30, TYPE=ELEMENT
26, S6
*SURFACE, NAME = UP_31, TYPE=ELEMENT
27, S3
*SURFACE, NAME = LEFT_31, TYPE=ELEMENT
27, S6
*SURFACE, NAME = UP_32, TYPE=ELEMENT
28, S3
*SURFACE, NAME = LEFT_32, TYPE=ELEMENT
28, S6
*SURFACE, NAME = UP_33, TYPE=ELEMENT
29, S3
*SURFACE, NAME = LEFT_33, TYPE=ELEMENT
29, S6
*SURFACE, NAME = UP_34, TYPE=ELEMENT
30, S3
*SURFACE, NAME = LEFT_34, TYPE=ELEMENT
30, S6
*SURFACE, NAME = UP_36, TYPE=ELEMENT
31, S3
*SURFACE, NAME = RIGHT_36, TYPE=ELEMENT
31, S4
*SURFACE, NAME = UP_37, TYPE=ELEMENT
32, S3
*SURFACE, NAME = RIGHT_37, TYPE=ELEMENT
32, S4
*SURFACE, NAME = UP_38, TYPE=ELEMENT
33, S3
*SURFACE, NAME = RIGHT_38, TYPE=ELEMENT
33, S4
*SURFACE, NAME = UP_39, TYPE=ELEMENT
34, S3
*SURFACE, NAME = RIGHT_39, TYPE=ELEMENT
34, S4
*SURFACE, NAME = UP_40, TYPE=ELEMENT
35, S3
*SURFACE, NAME = RIGHT_40, TYPE=ELEMENT
35, S4
*SURFACE, NAME = UP_41, TYPE=ELEMENT
36, S3
*SURFACE, NAME = RIGHT_41, TYPE=ELEMENT
36, S4
*SURFACE, NAME = UP_44, TYPE=ELEMENT
37, S3
*SURFACE, NAME = LEFT_44, TYPE=ELEMENT
37, S6
*SURFACE, NAME = RIGHT_44, TYPE=ELEMENT
37, S4
*SURFACE, NAME = UP_45, TYPE=ELEMENT
38, S3
*SURFACE, NAME = LEFT_45, TYPE=ELEMENT
38, S6
*SURFACE, NAME = RIGHT_45, TYPE=ELEMENT
38, S4
*SURFACE, NAME = UP_46, TYPE=ELEMENT
39, S3
*SURFACE, NAME = LEFT_46, TYPE=ELEMENT
39, S6
*SURFACE, NAME = RIGHT_46, TYPE=ELEMENT
39, S4
*SURFACE, NAME = UP_47, TYPE=ELEMENT
40, S3
*SURFACE, NAME = LEFT_47, TYPE=ELEMENT
40, S6
*SURFACE, NAME = RIGHT_47, TYPE=ELEMENT
40, S4
*SURFACE, NAME = UP_48, TYPE=ELEMENT
41, S3
*SURFACE, NAME = LEFT_48, TYPE=ELEMENT
41, S6
*SURFACE, NAME = RIGHT_48, TYPE=ELEMENT
41, S4
*SURFACE, NAME = UP_49, TYPE=ELEMENT
42, S3
*SURFACE, NAME = LEFT_49, TYPE=ELEMENT
42, S6
*SURFACE, NAME = RIGHT_49, TYPE=ELEMENT
42, S4
*SURFACE, NAME = UP_51, TYPE=ELEMENT
43, S3
*SURFACE, NAME = RIGHT_51, TYPE=ELEMENT
43, S4
*SURFACE, NAME = UP_52, TYPE=ELEMENT
44, S3
*SURFACE, NAME = RIGHT_52, TYPE=ELEMENT
44, S4
*SURFACE, NAME = UP_53, TYPE=ELEMENT
45, S3
*SURFACE, NAME = RIGHT_53, TYPE=ELEMENT
45, S4
*SURFACE, NAME = UP_54, TYPE=ELEMENT
46, S3
*SURFACE, NAME = RIGHT_54, TYPE=ELEMENT
46, S4
*SURFACE, NAME = UP_55, TYPE=ELEMENT
47, S3
*SURFACE, NAME = RIGHT_55, TYPE=ELEMENT
47, S4
*SURFACE, NAME = UP_56, TYPE=ELEMENT
48, S3
*SURFACE, NAME = RIGHT_56, TYPE=ELEMENT
48, S4
*SURFACE, NAME = UP_58, TYPE=ELEMENT
49, S3
*SURFACE, NAME = LEFT_58, TYPE=ELEMENT
49, S6
*SURFACE, NAME = UP_59, TYPE=ELEMENT
50, S3
*SURFACE, NAME = LEFT_59, TYPE=ELEMENT
50, S6
*SURFACE, NAME = UP_60, TYPE=ELEMENT
51, S3
*SURFACE, NAME = LEFT_60, TYPE=ELEMENT
51, S6
*SURFACE, NAME = UP_61, TYPE=ELEMENT
52, S3
*SURFACE, NAME = LEFT_61, TYPE=ELEMENT
52, S6
*SURFACE, NAME = UP_62, TYPE=ELEMENT
53, S3
*SURFACE, NAME = LEFT_62, TYPE=ELEMENT
53, S6
*SURFACE, NAME = UP_63, TYPE=ELEMENT
54, S3
*SURFACE, NAME = LEFT_63, TYPE=ELEMENT
54, S6
*SURFACE, NAME = UP_65, TYPE=ELEMENT
55, S3
*SURFACE, NAME = RIGHT_65, TYPE=ELEMENT
55, S4
*SURFACE, NAME = UP_66, TYPE=ELEMENT
56, S3
*SURFACE, NAME = RIGHT_66, TYPE=ELEMENT
56, S4
*SURFACE, NAME = UP_67, TYPE=ELEMENT
57, S3
*SURFACE, NAME = RIGHT_67, TYPE=ELEMENT
57, S4
*SURFACE, NAME = UP_68, TYPE=ELEMENT
58, S3
*SURFACE, NAME = RIGHT_68, TYPE=ELEMENT
58, S4
*SURFACE, NAME = UP_69, TYPE=ELEMENT
59, S3
*SURFACE, NAME = RIGHT_69, TYPE=ELEMENT
59, S4
*SURFACE, NAME = UP_70, TYPE=ELEMENT
60, S3
*SURFACE, NAME = RIGHT_70, TYPE=ELEMENT
60, S4
*SURFACE, NAME = UP_72, TYPE=ELEMENT
61, S3
*SURFACE, NAME = LEFT_72, TYPE=ELEMENT
61, S6
*SURFACE, NAME = UP_73, TYPE=ELEMENT
62, S3
*SURFACE, NAME = LEFT_73, TYPE=ELEMENT
62, S6
*SURFACE, NAME = UP_74, TYPE=ELEMENT
63, S3
*SURFACE, NAME = LEFT_74, TYPE=ELEMENT
63, S6
*SURFACE, NAME = UP_75, TYPE=ELEMENT
64, S3
*SURFACE, NAME = LEFT_75, TYPE=ELEMENT
64, S6
*SURFACE, NAME = UP_76, TYPE=ELEMENT
65, S3
*SURFACE, NAME = LEFT_76, TYPE=ELEMENT
65, S6
*SURFACE, NAME = UP_77, TYPE=ELEMENT
66, S3
*SURFACE, NAME = LEFT_77, TYPE=ELEMENT
66, S6
*SURFACE, NAME = UP_79, TYPE=ELEMENT
67, S3
*SURFACE, NAME = RIGHT_79, TYPE=ELEMENT
67, S4
*SURFACE, NAME = UP_80, TYPE=ELEMENT
68, S3
*SURFACE, NAME = RIGHT_80, TYPE=ELEMENT
68, S4
*SURFACE, NAME = UP_81, TYPE=ELEMENT
69, S3
*SURFACE, NAME = RIGHT_81, TYPE=ELEMENT
69, S4
*SURFACE, NAME = UP_82, TYPE=ELEMENT
70, S3
*SURFACE, NAME = RIGHT_82, TYPE=ELEMENT
70, S4
*SURFACE, NAME = UP_83, TYPE=ELEMENT
71, S3
*SURFACE, NAME = RIGHT_83, TYPE=ELEMENT
71, S4
*SURFACE, NAME = UP_84, TYPE=ELEMENT
72, S3
*SURFACE, NAME = RIGHT_84, TYPE=ELEMENT
72, S4
*SURFACE, NAME = UP_87, TYPE=ELEMENT
73, S3
*SURFACE, NAME = LEFT_87, TYPE=ELEMENT
73, S6
*SURFACE, NAME = RIGHT_87, TYPE=ELEMENT
73, S4
*SURFACE, NAME = UP_88, TYPE=ELEMENT
74, S3
*SURFACE, NAME = LEFT_88, TYPE=ELEMENT
74, S6
*SURFACE, NAME = RIGHT_88, TYPE=ELEMENT
74, S4
*SURFACE, NAME = UP_89, TYPE=ELEMENT
75, S3
*SURFACE, NAME = LEFT_89, TYPE=ELEMENT
75, S6
*SURFACE, NAME = RIGHT_89, TYPE=ELEMENT
75, S4
*SURFACE, NAME = UP_90, TYPE=ELEMENT
76, S3
*SURFACE, NAME = LEFT_90, TYPE=ELEMENT
76, S6
*SURFACE, NAME = RIGHT_90, TYPE=ELEMENT
76, S4
*SURFACE, NAME = UP_91, TYPE=ELEMENT
77, S3
*SURFACE, NAME = LEFT_91, TYPE=ELEMENT
77, S6
*SURFACE, NAME = RIGHT_91, TYPE=ELEMENT
77, S4
*SURFACE, NAME = UP_92, TYPE=ELEMENT
78, S3
*SURFACE, NAME = LEFT_92, TYPE=ELEMENT
78, S6
*SURFACE, NAME = RIGHT_92, TYPE=ELEMENT
78, S4
*SURFACE, NAME = UP_94, TYPE=ELEMENT
79, S3
*SURFACE, NAME = RIGHT_94, TYPE=ELEMENT
79, S4
*SURFACE, NAME = UP_95, TYPE=ELEMENT
80, S3
*SURFACE, NAME = RIGHT_95, TYPE=ELEMENT
80, S4
*SURFACE, NAME = UP_96, TYPE=ELEMENT
81, S3
*SURFACE, NAME = RIGHT_96, TYPE=ELEMENT
81, S4
*SURFACE, NAME = UP_97, TYPE=ELEMENT
82, S3
*SURFACE, NAME = RIGHT_97, TYPE=ELEMENT
82, S4
*SURFACE, NAME = UP_98, TYPE=ELEMENT
83, S3
*SURFACE, NAME = RIGHT_98, TYPE=ELEMENT
83, S4
*SURFACE, NAME = UP_99, TYPE=ELEMENT
84, S3
*SURFACE, NAME = RIGHT_99, TYPE=ELEMENT
84, S4
*SURFACE, NAME = UP_101, TYPE=ELEMENT
85, S3
*SURFACE, NAME = LEFT_101, TYPE=ELEMENT
85, S6
*SURFACE, NAME = UP_102, TYPE=ELEMENT
86, S3
*SURFACE, NAME = LEFT_102, TYPE=ELEMENT
86, S6
*SURFACE, NAME = UP_103, TYPE=ELEMENT
87, S3
*SURFACE, NAME = LEFT_103, TYPE=ELEMENT
87, S6
*SURFACE, NAME = UP_104, TYPE=ELEMENT
88, S3
*SURFACE, NAME = LEFT_104, TYPE=ELEMENT
88, S6
*SURFACE, NAME = UP_105, TYPE=ELEMENT
89, S3
*SURFACE, NAME = LEFT_105, TYPE=ELEMENT
89, S6
*SURFACE, NAME = UP_106, TYPE=ELEMENT
90, S3
*SURFACE, NAME = LEFT_106, TYPE=ELEMENT
90, S6
*SURFACE, NAME = UP_108, TYPE=ELEMENT
91, S3
*SURFACE, NAME = RIGHT_108, TYPE=ELEMENT
91, S4
*SURFACE, NAME = UP_109, TYPE=ELEMENT
92, S3
*SURFACE, NAME = RIGHT_109, TYPE=ELEMENT
92, S4
*SURFACE, NAME = UP_110, TYPE=ELEMENT
93, S3
*SURFACE, NAME = RIGHT_110, TYPE=ELEMENT
93, S4
*SURFACE, NAME = UP_111, TYPE=ELEMENT
94, S3
*SURFACE, NAME = RIGHT_111, TYPE=ELEMENT
94, S4
*SURFACE, NAME = UP_112, TYPE=ELEMENT
95, S3
*SURFACE, NAME = RIGHT_112, TYPE=ELEMENT
95, S4
*SURFACE, NAME = UP_113, TYPE=ELEMENT
96, S3
*SURFACE, NAME = RIGHT_113, TYPE=ELEMENT
96, S4
*SURFACE, NAME = UP_115, TYPE=ELEMENT
97, S3
*SURFACE, NAME = LEFT_115, TYPE=ELEMENT
97, S6
*SURFACE, NAME = UP_116, TYPE=ELEMENT
98, S3
*SURFACE, NAME = LEFT_116, TYPE=ELEMENT
98, S6
*SURFACE, NAME = UP_117, TYPE=ELEMENT
99, S3
*SURFACE, NAME = LEFT_117, TYPE=ELEMENT
99, S6
*SURFACE, NAME = UP_118, TYPE=ELEMENT
100, S3
*SURFACE, NAME = LEFT_118, TYPE=ELEMENT
100, S6
*SURFACE, NAME = UP_119, TYPE=ELEMENT
101, S3
*SURFACE, NAME = LEFT_119, TYPE=ELEMENT
101, S6
*SURFACE, NAME = UP_120, TYPE=ELEMENT
102, S3
*SURFACE, NAME = LEFT_120, TYPE=ELEMENT
102, S6
*SURFACE, NAME = UP_122, TYPE=ELEMENT
103, S3
*SURFACE, NAME = RIGHT_122, TYPE=ELEMENT
103, S4
*SURFACE, NAME = UP_123, TYPE=ELEMENT
104, S3
*SURFACE, NAME = RIGHT_123, TYPE=ELEMENT
104, S4
*SURFACE, NAME = UP_124, TYPE=ELEMENT
105, S3
*SURFACE, NAME = RIGHT_124, TYPE=ELEMENT
105, S4
*SURFACE, NAME = UP_125, TYPE=ELEMENT
106, S3
*SURFACE, NAME = RIGHT_125, TYPE=ELEMENT
106, S4
*SURFACE, NAME = UP_126, TYPE=ELEMENT
107, S3
*SURFACE, NAME = RIGHT_126, TYPE=ELEMENT
107, S4
*SURFACE, NAME = UP_127, TYPE=ELEMENT
108, S3
*SURFACE, NAME = RIGHT_127, TYPE=ELEMENT
108, S4
*SURFACE, NAME = BUILD_SURFACE, TYPE=ELEMENT
 1, S5
 2, S5
 3, S5
 4, S5
 5, S5
 6, S5
 7, S5
 8, S5
 9, S5
 10, S5
 11, S5
 12, S5
 13, S5
 14, S5
 15, S5
 16, S5
 17, S5
 18, S5
 19, S5
 20, S5
** ... 16 like lines cut
**MATERIEL DEF
*PHYSICAL CONSTANTS, ABSOLUTE ZERO=-273.15, STEFAN BOLTZMAN=5.6703E-8
*Material, name=ABSP430
*Conductivity
0.3,
*Density
1040.,
*Elastic
2200e6., 0.4, 20
1100e6., 0.4, 100
*PLASTIC, HARDENING=ISOTROPIC
31e6, 0.0, 20
33e6, 0.05, 20
15.5e6, 0.0, 90
16.5e6, 0.05, 90
*Expansion
8.82e-05,
*Specific Heat
2020
*SOLID SECTION, ELSET=ALLELEMENTS, MATERIAL = ABSP430

*INITIAL CONDITIONS, TYPE = TEMPERATURE
ALLNODES, 210.0
*AMPLITUDE, NAME=QADD, VALUE=RELATIVE, DEFINITION=TABULAR, TIME = STEP TIME
0, 1
1e-05,1
1.0009999999999999e-05,0
*SURFACE, NAME = FREE_SURFACE, TYPE = ELEMENT
ALLELEMENTS,
*STEP,NAME = STEP_0, INC= 20000
*HEAT TRANSFER, DELTMX = 10.
0.01, 3.0, 1e-9, 3.0
**BUILD_PLATE,11,11, 60.0
*MODEL CHANGE, REMOVE
E_STEP_1,
E_STEP_2,
E_STEP_3,
E_STEP_4,
E_STEP_5,
E_STEP_6,
E_STEP_8,
E_STEP_9,
E_STEP_10,
E_STEP_11,
E_STEP_12,
E_STEP_13,
E_STEP_15,
E_STEP_16,
E_STEP_17,
E_STEP_18,
E_STEP_19,
E_STEP_20,
E_STEP_22,
E_STEP_23,
** ... 88 like lines cut
*SFILM
UP_1, F, 33.0, 67.0
LEFT_1, F, 33.0, 67.0
RIGHT_1, F, 33.0, 67.0
UP_2, F, 33.0, 67.0
LEFT_2, F, 33.0, 67.0
RIGHT_2, F, 33.0, 67.0
UP_3, F, 33.0, 67.0
LEFT_3, F, 33.0, 67.0
RIGHT_3, F, 33.0, 67.0
UP_4, F, 33.0, 67.0
LEFT_4, F, 33.0, 67.0
RIGHT_4, F, 33.0, 67.0
UP_5, F, 33.0, 67.0
LEFT_5, F, 33.0, 67.0
RIGHT_5, F, 33.0, 67.0
UP_6, F, 33.0, 67.0
LEFT_6, F, 33.0, 67.0
RIGHT_6, F, 33.0, 67.0
UP_8, F, 33.0, 67.0
RIGHT_8, F, 33.0, 67.0
UP_9, F, 33.0, 67.0
RIGHT_9, F, 33.0, 67.0
UP_10, F, 33.0, 67.0
RIGHT_10, F, 33.0, 67.0
UP_11, F, 33.0, 67.0
RIGHT_11, F, 33.0, 67.0
UP_12, F, 33.0, 67.0
RIGHT_12, F, 33.0, 67.0
UP_13, F, 33.0, 67.0
RIGHT_13, F, 33.0, 67.0
UP_15, F, 33.0, 67.0
LEFT_15, F, 33.0, 67.0
UP_16, F, 33.0, 67.0
LEFT_16, F, 33.0, 67.0
UP_17, F, 33.0, 67.0
LEFT_17, F, 33.0, 67.0
UP_18, F, 33.0, 67.0
LEFT_18, F, 33.0, 67.0
UP_19, F, 33.0, 67.0
LEFT_19, F, 33.0, 67.0
UP_20, F, 33.0, 67.0
LEFT_20, F, 33.0, 67.0
UP_22, F, 33.0, 67.0
RIGHT_22, F, 33.0, 67.0
UP_23, F, 33.0, 67.0
RIGHT_23, F, 33.0, 67.0
UP_24, F, 33.0, 67.0
RIGHT_24, F, 33.0, 67.0
UP_25, F, 33.0, 67.0
RIGHT_25, F, 33.0, 67.0
UP_26, F, 33.0, 67.0
RIGHT_26, F, 33.0, 67.0
UP_27, F, 33.0, 67.0
RIGHT_27, F, 33.0, 67.0
UP_29, F, 33.0, 67.0
LEFT_29, F, 33.0, 67.0
UP_30, F, 33.0, 67.0
LEFT_30, F, 33.0, 67.0
UP_31, F, 33.0, 67.0
LEFT_31, F, 33.0, 67.0
UP_32, F, 33.0, 67.0
LEFT_32, F, 33.0, 67.0
UP_33, F, 33.0, 67.0
LEFT_33, F, 33.0, 67.0
UP_34, F, 33.0, 67.0
LEFT_34, F, 33.0, 67.0
UP_36, F, 33.0, 67.0
RIGHT_36, F, 33.0, 67.0
UP_37, F, 33.0, 67.0
RIGHT_37, F, 33.0, 67.0
UP_38, F, 33.0, 67.0
RIGHT_38, F, 33.0, 67.0
UP_39, F, 33.0, 67.0
RIGHT_39, F, 33.0, 67.0
UP_40, F, 33.0, 67.0
RIGHT_40, F, 33.0, 67.0
UP_41, F, 33.0, 67.0
RIGHT_41, F, 33.0, 67.0
UP_44, F, 33.0, 67.0
LEFT_44, F, 33.0, 67.0
RIGHT_44, F, 33.0, 67.0
UP_45, F, 33.0, 67.0
LEFT_45, F, 33.0, 67.0
RIGHT_45, F, 33.0, 67.0
UP_46, F, 33.0, 67.0
LEFT_46, F, 33.0, 67.0
RIGHT_46, F, 33.0, 67.0
UP_47, F, 33.0, 67.0
LEFT_47, F, 33.0, 67.0
RIGHT_47, F, 33.0, 67.0
UP_48, F, 33.0, 67.0
LEFT_48, F, 33.0, 67.0
RIGHT_48, F, 33.0, 67.0
UP_49, F, 33.0, 67.0
LEFT_49, F, 33.0, 67.0
RIGHT_49, F, 33.0, 67.0
UP_51, F, 33.0, 67.0
RIGHT_51, F, 33.0, 67.0
UP_52, F, 33.0, 67.0
RIGHT_52, F, 33.0, 67.0
UP_53, F, 33.0, 67.0
RIGHT_53, F, 33.0, 67.0
UP_54, F, 33.0, 67.0
RIGHT_54, F, 33.0, 67.0
UP_55, F, 33.0, 67.0
RIGHT_55, F, 33.0, 67.0
UP_56, F, 33.0, 67.0
RIGHT_56, F, 33.0, 67.0
UP_58, F, 33.0, 67.0
LEFT_58, F, 33.0, 67.0
UP_59, F, 33.0, 67.0
LEFT_59, F, 33.0, 67.0
UP_60, F, 33.0, 67.0
LEFT_60, F, 33.0, 67.0
UP_61, F, 33.0, 67.0
LEFT_61, F, 33.0, 67.0
UP_62, F, 33.0, 67.0
LEFT_62, F, 33.0, 67.0
UP_63, F, 33.0, 67.0
LEFT_63, F, 33.0, 67.0
UP_65, F, 33.0, 67.0
RIGHT_65, F, 33.0, 67.0
UP_66, F, 33.0, 67.0
RIGHT_66, F, 33.0, 67.0
UP_67, F, 33.0, 67.0
RIGHT_67, F, 33.0, 67.0
UP_68, F, 33.0, 67.0
RIGHT_68, F, 33.0, 67.0
UP_69, F, 33.0, 67.0
RIGHT_69, F, 33.0, 67.0
UP_70, F, 33.0, 67.0
RIGHT_70, F, 33.0, 67.0
UP_72, F, 33.0, 67.0
LEFT_72, F, 33.0, 67.0
UP_73, F, 33.0, 67.0
LEFT_73, F, 33.0, 67.0
UP_74, F, 33.0, 67.0
LEFT_74, F, 33.0, 67.0
UP_75, F, 33.0, 67.0
LEFT_75, F, 33.0, 67.0
UP_76, F, 33.0, 67.0
LEFT_76, F, 33.0, 67.0
UP_77, F, 33.0, 67.0
LEFT_77, F, 33.0, 67.0
UP_79, F, 33.0, 67.0
RIGHT_79, F, 33.0, 67.0
UP_80, F, 33.0, 67.0
RIGHT_80, F, 33.0, 67.0
UP_81, F, 33.0, 67.0
RIGHT_81, F, 33.0, 67.0
UP_82, F, 33.0, 67.0
RIGHT_82, F, 33.0, 67.0
UP_83, F, 33.0, 67.0
RIGHT_83, F, 33.0, 67.0
UP_84, F, 33.0, 67.0
RIGHT_84, F, 33.0, 67.0
UP_87, F, 33.0, 67.0
LEFT_87, F, 33.0, 67.0
RIGHT_87, F, 33.0, 67.0
UP_88, F, 33.0, 67.0
LEFT_88, F, 33.0, 67.0
RIGHT_88, F, 33.0, 67.0
UP_89, F, 33.0, 67.0
LEFT_89, F, 33.0, 67.0
RIGHT_89, F, 33.0, 67.0
UP_90, F, 33.0, 67.0
LEFT_90, F, 33.0, 67.0
RIGHT_90, F, 33.0, 67.0
UP_91, F, 33.0, 67.0
LEFT_91, F, 33.0, 67.0
RIGHT_91, F, 33.0, 67.0
UP_92, F, 33.0, 67.0
LEFT_92, F, 33.0, 67.0
RIGHT_92, F, 33.0, 67.0
UP_94, F, 33.0, 67.0
RIGHT_94, F, 33.0, 67.0
UP_95, F, 33.0, 67.0
RIGHT_95, F, 33.0, 67.0
UP_96, F, 33.0, 67.0
RIGHT_96, F, 33.0, 67.0
UP_97, F, 33.0, 67.0
RIGHT_97, F, 33.0, 67.0
UP_98, F, 33.0, 67.0
RIGHT_98, F, 33.0, 67.0
UP_99, F, 33.0, 67.0
RIGHT_99, F, 33.0, 67.0
UP_101, F, 33.0, 67.0
LEFT_101, F, 33.0, 67.0
UP_102, F, 33.0, 67.0
LEFT_102, F, 33.0, 67.0
UP_103, F, 33.0, 67.0
LEFT_103, F, 33.0, 67.0
UP_104, F, 33.0, 67.0
LEFT_104, F, 33.0, 67.0
UP_105, F, 33.0, 67.0
LEFT_105, F, 33.0, 67.0
UP_106, F, 33.0, 67.0
LEFT_106, F, 33.0, 67.0
UP_108, F, 33.0, 67.0
RIGHT_108, F, 33.0, 67.0
UP_109, F, 33.0, 67.0
RIGHT_109, F, 33.0, 67.0
UP_110, F, 33.0, 67.0
RIGHT_110, F, 33.0, 67.0
UP_111, F, 33.0, 67.0
RIGHT_111, F, 33.0, 67.0
UP_112, F, 33.0, 67.0
RIGHT_112, F, 33.0, 67.0
UP_113, F, 33.0, 67.0
RIGHT_113, F, 33.0, 67.0
UP_115, F, 33.0, 67.0
LEFT_115, F, 33.0, 67.0
UP_116, F, 33.0, 67.0
LEFT_116, F, 33.0, 67.0
UP_117, F, 33.0, 67.0
LEFT_117, F, 33.0, 67.0
UP_118, F, 33.0, 67.0
LEFT_118, F, 33.0, 67.0
UP_119, F, 33.0, 67.0
LEFT_119, F, 33.0, 67.0
UP_120, F, 33.0, 67.0
LEFT_120, F, 33.0, 67.0
UP_122, F, 33.0, 67.0
RIGHT_122, F, 33.0, 67.0
UP_123, F, 33.0, 67.0
RIGHT_123, F, 33.0, 67.0
UP_124, F, 33.0, 67.0
RIGHT_124, F, 33.0, 67.0
UP_125, F, 33.0, 67.0
RIGHT_125, F, 33.0, 67.0
UP_126, F, 33.0, 67.0
RIGHT_126, F, 33.0, 67.0
UP_127, F, 33.0, 67.0
RIGHT_127, F, 33.0, 67.0
*SFILM
BUILD_SURFACE, F, 60.0, 210.0
**DATA FOR THE STRUCTURAL ANALYSIS
*NODE FILE, NSET=ALLNODES, FREQUENCY = 10
NT
*OUTPUT, FIELD
*NODE OUTPUT, NSET=ALLNODES
*OUTPUT, FIELD, VARIABLE = PRESELECT, TIME INTERVAL = 1 
*OUTPUT, HISTORY, VARIABLE = PRESELECT
*END STEP


*STEP,NAME = STEP_1, INC= 20000
*HEAT TRANSFER, DELTMX = 10.
0.01, 0.09140000000000015, 1e-9, 0.09140000000000015
*CONTROLS, ANALYSIS=DISCONTINUOUS
*MODEL CHANGE, ADD = STRAIN FREE 
E_STEP_1
*OUTPUT, FIELD, VARIABLE = PRESELECT, NUMBER INTERVAL = 1
*OUTPUT, HISTORY, VARIABLE = PRESELECT
*NODE FILE, NSET=ALLNODES, FREQUENCY = 10
NT
*OUTPUT, FIELD
*NODE OUTPUT, NSET=ALLNODES
*END STEP


*STEP,NAME = STEP_2, INC= 20000
*HEAT TRANSFER, DELTMX = 10.
0.01, 0.0913999999999997, 1e-9, 0.0913999999999997
*CONTROLS, ANALYSIS=DISCONTINUOUS
*MODEL CHANGE, ADD = STRAIN FREE 
E_STEP_2
*OUTPUT, FIELD, VARIABLE = PRESELECT, NUMBER INTERVAL = 1
*OUTPUT, HISTORY, VARIABLE = PRESELECT
*NODE FILE, NSET=ALLNODES, FREQUENCY = 10
NT
*OUTPUT, FIELD
*NODE OUTPUT, NSET=ALLNODES
*END STEP


*STEP,NAME = STEP_3, INC= 20000
*HEAT TRANSFER, DELTMX = 10.
0.01, 0.09140000000000015, 1e-9, 0.09140000000000015
*CONTROLS, ANALYSIS=DISCONTINUOUS
*MODEL CHANGE, ADD = STRAIN FREE 
E_STEP_3
*OUTPUT, FIELD, VARIABLE = PRESELECT, NUMBER INTERVAL = 1
*OUTPUT, HISTORY, VARIABLE = PRESELECT
*NODE FILE, NSET=ALLNODES, FREQUENCY = 10
NT
*OUTPUT, FIELD
*NODE OUTPUT, NSET=ALLNODES
*END STEP


*STEP,NAME = STEP_4, INC= 20000
*HEAT TRANSFER, DELTMX = 10.
0.01, 0.09140000000000015, 1e-9, 0.09140000000000015
*CONTROLS, ANALYSIS=DISCONTINUOUS
*MODEL CHANGE, ADD = STRAIN FREE 
E_STEP_4
*OUTPUT, FIELD, VARIABLE = PRESELECT, NUMBER INTERVAL = 1
*OUTPUT, HISTORY, VARIABLE = PRESELECT
*NODE FILE, NSET=ALLNODES, FREQUENCY = 10
NT
*OUTPUT, FIELD
*NODE OUTPUT, NSET=ALLNODES
*END STEP


*STEP,NAME = STEP_5, INC= 20000
*HEAT TRANSFER, DELTMX = 10.
0.01, 0.0913999999999997, 1e-9, 0.0913999999999997
*CONTROLS, ANALYSIS=DISCONTINUOUS
*MODEL CHANGE, ADD = STRAIN FREE 
E_STEP_5
*OUTPUT, FIELD, VARIABLE = PRESELECT, NUMBER INTERVAL = 1
*OUTPUT, HISTORY, VARIABLE = PRESELECT
*NODE FILE, NSET=ALLNODES, FREQUENCY = 10
NT
*OUTPUT, FIELD
*NODE OUTPUT, NSET=ALLNODES
*END STEP


*STEP,NAME = STEP_6, INC= 20000
*HEAT TRANSFER, DELTMX = 10.
0.01, 0.09140000000000015, 1e-9, 0.09140000000000015
*CONTROLS, ANALYSIS=DISCONTINUOUS
*MODEL CHANGE, ADD = STRAIN FREE 
E_STEP_6
*OUTPUT, FIELD, VARIABLE = PRESELECT, NUMBER INTERVAL = 1
*OUTPUT, HISTORY, VARIABLE = PRESELECT
*NODE FILE, NSET=ALLNODES, FREQUENCY = 10
NT
*OUTPUT, FIELD
*NODE OUTPUT, NSET=ALLNODES
*END STEP


*STEP,NAME = STEP_7, INC= 20000
*HEAT TRANSFER, DELTMX = 10.
0.01, 0.09140000000000015, 1e-9, 0.09140000000000015
*CONTROLS, ANALYSIS=DISCONTINUOUS
*OUTPUT, FIELD, VARIABLE = PRESELECT, NUMBER INTERVAL = 1
*OUTPUT, HISTORY, VARIABLE = PRESELECT
*NODE FILE, NSET=ALLNODES, FREQUENCY = 10
NT
*OUTPUT, FIELD
*NODE OUTPUT, NSET=ALLNODES
*END STEP


*STEP,NAME = STEP_8, INC= 20000
*HEAT TRANSFER, DELTMX = 10.
0.01, 0.09140000000000015, 1e-9, 0.09140000000000015
*CONTROLS, ANALYSIS=DISCONTINUOUS
*MODEL CHANGE, ADD = STRAIN FREE 
E_STEP_8
*SFILM
LEFT_6, F, 20, 0.0
*SRADIATE
LEFT_6, R, 20, 0.0
*OUTPUT, FIELD, VARIABLE = PRESELECT, NUMBER INTERVAL = 1
*OUTPUT, HISTORY, VARIABLE = PRESELECT
*NODE FILE, NSET=ALLNODES, FREQUENCY = 10
NT
*OUTPUT, FIELD
*NODE OUTPUT, NSET=ALLNODES
*END STEP


*STEP,NAME = STEP_9, INC= 20000
*HEAT TRANSFER, DELTMX = 10.
0.01, 0.0913999999999997, 1e-9, 0.0913999999999997
*CONTROLS, ANALYSIS=DISCONTINUOUS
*MODEL CHANGE, ADD = STRAIN FREE 
E_STEP_9
*SFILM
LEFT_5, F, 20, 0.0
*SRADIATE
LEFT_5, R, 20, 0.0
*OUTPUT, FIELD, VARIABLE = PRESELECT, NUMBER INTERVAL = 1
*OUTPUT, HISTORY, VARIABLE = PRESELECT
*NODE FILE, NSET=ALLNODES, FREQUENCY = 10
NT
*OUTPUT, FIELD
*NODE OUTPUT, NSET=ALLNODES
*END STEP


*STEP,NAME = STEP_10, INC= 20000
*HEAT TRANSFER, DELTMX = 10.
0.01, 0.09140000000000015, 1e-9, 0.09140000000000015
*CONTROLS, ANALYSIS=DISCONTINUOUS
*MODEL CHANGE, ADD = STRAIN FREE 
E_STEP_10
*SFILM
LEFT_4, F, 20, 0.0
*SRADIATE
LEFT_4, R, 20, 0.0
*OUTPUT, FIELD, VARIABLE = PRESELECT, NUMBER INTERVAL = 1
*OUTPUT, HISTORY, VARIABLE = PRESELECT
*NODE FILE, NSET=ALLNODES, FREQUENCY = 10
NT
*OUTPUT, FIELD
*NODE OUTPUT, NSET=ALLNODES
*END STEP


*STEP,NAME = STEP_11, INC= 20000
*HEAT TRANSFER, DELTMX = 10.
0.01, 0.0913999999999997, 1e-9, 0.0913999999999997
*CONTROLS, ANALYSIS=DISCONTINUOUS
*MODEL CHANGE, ADD = STRAIN FREE 
E_STEP_11
*SFILM
LEFT_3, F, 20, 0.0
*SRADIATE
LEFT_3, R, 20, 0.0
*OUTPUT, FIELD, VARIABLE = PRESELECT, NUMBER INTERVAL = 1
*OUTPUT, HISTORY, VARIABLE = PRESELECT
*NODE FILE, NSET=ALLNODES, FREQUENCY = 10
NT
*OUTPUT, FIELD
*NODE OUTPUT, NSET=ALLNODES
*END STEP


*STEP,NAME = STEP_12, INC= 20000
*HEAT TRANSFER, DELTMX = 10.
0.01, 0.09140000000000015, 1e-9, 0.09140000000000015
*CONTROLS, ANALYSIS=DISCONTINUOUS
*MODEL CHANGE, ADD = STRAIN FREE 
E_STEP_12
*SFILM
LEFT_2, F, 20, 0.0
*SRADIATE
LEFT_2, R, 20, 0.0
*OUTPUT, FIELD, VARIABLE = PRESELECT, NUMBER INTERVAL = 1
*OUTPUT, HISTORY, VARIABLE = PRESELECT
*NODE FILE, NSET=ALLNODES, FREQUENCY = 10
NT
*OUTPUT, FIELD
*NODE OUTPUT, NSET=ALLNODES
*END STEP


*STEP,NAME = STEP_13, INC= 20000
*HEAT TRANSFER, DELTMX = 10.
0.01, 0.09140000000000015, 1e-9, 0.09140000000000015
*CONTROLS, ANALYSIS=DISCONTINUOUS
*MODEL CHANGE, ADD = STRAIN FREE 
E_STEP_13
*SFILM
LEFT_1, F, 20, 0.0
*SRADIATE
LEFT_1, R, 20, 0.0
*OUTPUT, FIELD, VARIABLE = PRESELECT, NUMBER INTERVAL = 1
*OUTPUT, HISTORY, VARIABLE = PRESELECT
*NODE FILE, NSET=ALLNODES, FREQUENCY = 10
NT
*OUTPUT, FIELD
*NODE OUTPUT, NSET=ALLNODES
*END STEP


*STEP,NAME = STEP_14, INC= 20000
*HEAT TRANSFER, DELTMX = 10.
0.01, 0.09140000000000015, 1e-9, 0.09140000000000015
*CONTROLS, ANALYSIS=DISCONTINUOUS
*OUTPUT, FIELD, VARIABLE = PRESELECT, NUMBER INTERVAL = 1
*OUTPUT, HISTORY, VARIABLE = PRESELECT
*NODE FILE, NSET=ALLNODES, FREQUENCY = 10
NT
*OUTPUT, FIELD
*NODE OUTPUT, NSET=ALLNODES
*END STEP


*STEP,NAME = STEP_15, INC= 20000
*HEAT TRANSFER, DELTMX = 10.
0.01, 0.09140000000000015, 1e-9, 0.09140000000000015
*CONTROLS, ANALYSIS=DISCONTINUOUS
*MODEL CHANGE, ADD = STRAIN FREE 
E_STEP_15
*SFILM
RIGHT_13, F, 20, 0.0
*SRADIATE
RIGHT_13, R, 20, 0.0
*OUTPUT, FIELD, VARIABLE = PRESELECT, NUMBER INTERVAL = 1
*OUTPUT, HISTORY, VARIABLE = PRESELECT
*NODE FILE, NSET=ALLNODES, FREQUENCY = 10
NT
*OUTPUT, FIELD
*NODE OUTPUT, NSET=ALLNODES
*END STEP


*STEP,NAME = STEP_16, INC= 20000
*HEAT TRANSFER, DELTMX = 10.
0.01, 0.09140000000000015, 1e-9, 0.09140000000000015
*CONTROLS, ANALYSIS=DISCONTINUOUS
*MODEL CHANGE, ADD = STRAIN FREE 
E_STEP_16
*SFILM
RIGHT_12, F, 20, 0.0
*SRADIATE
RIGHT_12, R, 20, 0.0
*OUTPUT, FIELD, VARIABLE = PRESELECT, NUMBER INTERVAL = 1
*OUTPUT, HISTORY, VARIABLE = PRESELECT
*NODE FILE, NSET=ALLNODES, FREQUENCY = 10
NT
*OUTPUT, FIELD
*NODE OUTPUT, NSET=ALLNODES
*END STEP


*STEP,NAME = STEP_17, INC= 20000
*HEAT TRANSFER, DELTMX = 10.
0.01, 0.09140000000000015, 1e-9, 0.09140000000000015
*CONTROLS, ANALYSIS=DISCONTINUOUS
*MODEL CHANGE, ADD = STRAIN FREE 
E_STEP_17
*SFILM
RIGHT_11, F, 20, 0.0
*SRADIATE
RIGHT_11, R, 20, 0.0
*OUTPUT, FIELD, VARIABLE = PRESELECT, NUMBER INTERVAL = 1
*OUTPUT, HISTORY, VARIABLE = PRESELECT
*NODE FILE, NSET=ALLNODES, FREQUENCY = 10
NT
*OUTPUT, FIELD
*NODE OUTPUT, NSET=ALLNODES
*END STEP


*STEP,NAME = STEP_18, INC= 20000
*HEAT TRANSFER, DELTMX = 10.
0.01, 0.09139999999999926, 1e-9, 0.09139999999999926
*CONTROLS, ANALYSIS=DISCONTINUOUS
*MODEL CHANGE, ADD = STRAIN FREE 
E_STEP_18
*SFILM
RIGHT_10, F, 20, 0.0
*SRADIATE
RIGHT_10, R, 20, 0.0
*OUTPUT, FIELD, VARIABLE = PRESELECT, NUMBER INTERVAL = 1
*OUTPUT, HISTORY, VARIABLE = PRESELECT
*NODE FILE, NSET=ALLNODES, FREQUENCY = 10
NT
*OUTPUT, FIELD
*NODE OUTPUT, NSET=ALLNODES
*END STEP


*STEP,NAME = STEP_19, INC= 20000
*HEAT TRANSFER, DELTMX = 10.
0.01, 0.09140000000000015, 1e-9, 0.09140000000000015
*CONTROLS, ANALYSIS=DISCONTINUOUS
*MODEL CHANGE, ADD = STRAIN FREE 
E_STEP_19
*SFILM
RIGHT_9, F, 20, 0.0
*SRADIATE
RIGHT_9, R, 20, 0.0
*OUTPUT, FIELD, VARIABLE = PRESELECT, NUMBER INTERVAL = 1
*OUTPUT, HISTORY, VARIABLE = PRESELECT
*NODE FILE, NSET=ALLNODES, FREQUENCY = 10
NT
*OUTPUT, FIELD
*NODE OUTPUT, NSET=ALLNODES
*END STEP


*STEP,NAME = STEP_20, INC= 20000
*HEAT TRANSFER, DELTMX = 10.
0.01, 0.09140000000000015, 1e-9, 0.09140000000000015
*CONTROLS, ANALYSIS=DISCONTINUOUS
*MODEL CHANGE, ADD = STRAIN FREE 
E_STEP_20
*SFILM
RIGHT_8, F, 20, 0.0
*SRADIATE
RIGHT_8, R, 20, 0.0
*OUTPUT, FIELD, VARIABLE = PRESELECT, NUMBER INTERVAL = 1
*OUTPUT, HISTORY, VARIABLE = PRESELECT
*NODE FILE, NSET=ALLNODES, FREQUENCY = 10
NT
*OUTPUT, FIELD
*NODE OUTPUT, NSET=ALLNODES
*END STEP


*STEP,NAME = STEP_21, INC= 20000
*HEAT TRANSFER, DELTMX = 10.
0.01, 0.09140000000000015, 1e-9, 0.09140000000000015
*CONTROLS, ANALYSIS=DISCONTINUOUS
*OUTPUT, FIELD, VARIABLE = PRESELECT, NUMBER INTERVAL = 1
*OUTPUT, HISTORY, VARIABLE = PRESELECT
*NODE FILE, NSET=ALLNODES, FREQUENCY = 10
NT
*OUTPUT, FIELD
*NODE OUTPUT, NSET=ALLNODES
*END STEP


*STEP,NAME = STEP_22, INC= 20000
*HEAT TRANSFER, DELTMX = 10.
0.01, 0.09140000000000015, 1e-9, 0.09140000000000015
*CONTROLS, ANALYSIS=DISCONTINUOUS
*MODEL CHANGE, ADD = STRAIN FREE 
E_STEP_22
*SFILM
LEFT_20, F, 20, 0.0
*SRADIATE
LEFT_20, R, 20, 0.0
*OUTPUT, FIELD, VARIABLE = PRESELECT, NUMBER INTERVAL = 1
*OUTPUT, HISTORY, VARIABLE = PRESELECT
*NODE FILE, NSET=ALLNODES, FREQUENCY = 10
NT
*OUTPUT, FIELD
*NODE OUTPUT, NSET=ALLNODES
*END STEP


*STEP,NAME = STEP_23, INC= 20000
*HEAT TRANSFER, DELTMX = 10.
0.01, 0.09140000000000015, 1e-9, 0.09140000000000015
*CONTROLS, ANALYSIS=DISCONTINUOUS
*MODEL CHANGE, ADD = STRAIN FREE 
E_STEP_23
*SFILM
LEFT_19, F, 20, 0.0
*SRADIATE
LEFT_19, R, 20, 0.0
*OUTPUT, FIELD, VARIABLE = PRESELECT, NUMBER INTERVAL = 1
*OUTPUT, HISTORY, VARIABLE = PRESELECT
*NODE FILE, NSET=ALLNODES, FREQUENCY = 10
NT
*OUTPUT, FIELD
*NODE OUTPUT, NSET=ALLNODES
*END STEP


*STEP,NAME = STEP_24, INC= 20000
*HEAT TRANSFER, DELTMX = 10.
0.01, 0.09139999999999926, 1e-9, 0.09139999999999926
*CONTROLS, ANALYSIS=DISCONTINUOUS
*MODEL CHANGE, ADD = STRAIN FREE 
E_STEP_24
*SFILM
LEFT_18, F, 20, 0.0
*SRADIATE
LEFT_18, R, 20, 0.0
*OUTPUT, FIELD, VARIABLE = PRESELECT, NUMBER INTERVAL = 1
*OUTPUT, HISTORY, VARIABLE = PRESELECT
*NODE FILE, NSET=ALLNODES, FREQUENCY = 10
NT
*OUTPUT, FIELD
*NODE OUTPUT, NSET=ALLNODES
*END STEP


*STEP,NAME = STEP_25, INC= 20000
*HEAT TRANSFER, DELTMX = 10.
0.01, 0.09140000000000015, 1e-9, 0.09140000000000015
*CONTROLS, ANALYSIS=DISCONTINUOUS
*MODEL CHANGE, ADD = STRAIN FREE 
E_STEP_25
*SFILM
LEFT_17, F, 20, 0.0
*SRADIATE
LEFT_17, R, 20, 0.0
*OUTPUT, FIELD, VARIABLE = PRESELECT, NUMBER INTERVAL = 1
*OUTPUT, HISTORY, VARIABLE = PRESELECT
*NODE FILE, NSET=ALLNODES, FREQUENCY = 10
NT
*OUTPUT, FIELD
*NODE OUTPUT, NSET=ALLNODES
*END STEP


*STEP,NAME = STEP_26, INC= 20000
*HEAT TRANSFER, DELTMX = 10.
0.01, 0.09140000000000015, 1e-9, 0.09140000000000015
*CONTROLS, ANALYSIS=DISCONTINUOUS
*MODEL CHANGE, ADD = STRAIN FREE 
E_STEP_26
*SFILM
LEFT_16, F, 20, 0.0
*SRADIATE
LEFT_16, R, 20, 0.0
*OUTPUT, FIELD, VARIABLE = PRESELECT, NUMBER INTERVAL = 1
*OUTPUT, HISTORY, VARIABLE = PRESELECT
*NODE FILE, NSET=ALLNODES, FREQUENCY = 10
NT
*OUTPUT, FIELD
*NODE OUTPUT, NSET=ALLNODES
*END STEP


*STEP,NAME = STEP_27, INC= 20000
*HEAT TRANSFER, DELTMX = 10.
0.01, 0.09140000000000015, 1e-9, 0.09140000000000015
*CONTROLS, ANALYSIS=DISCONTINUOUS
*MODEL CHANGE, ADD = STRAIN FREE 
E_STEP_27
*SFILM
LEFT_15, F, 20, 0.0
*SRADIATE
LEFT_15, R, 20, 0.0
*OUTPUT, FIELD, VARIABLE = PRESELECT, NUMBER INTERVAL = 1
*OUTPUT, HISTORY, VARIABLE = PRESELECT
*NODE FILE, NSET=ALLNODES, FREQUENCY = 10
NT
*OUTPUT, FIELD
*NODE OUTPUT, NSET=ALLNODES
*END STEP


*STEP,NAME = STEP_28, INC= 20000
*HEAT TRANSFER, DELTMX = 10.
0.01, 0.09140000000000015, 1e-9, 0.09140000000000015
*CONTROLS, ANALYSIS=DISCONTINUOUS
*OUTPUT, FIELD, VARIABLE = PRESELECT, NUMBER INTERVAL = 1
*OUTPUT, HISTORY, VARIABLE = PRESELECT
*NODE FILE, NSET=ALLNODES, FREQUENCY = 10
NT
*OUTPUT, FIELD
*NODE OUTPUT, NSET=ALLNODES
*END STEP


*STEP,NAME = STEP_29, INC= 20000
*HEAT TRANSFER, DELTMX = 10.
0.01, 0.09140000000000015, 1e-9, 0.09140000000000015
*CONTROLS, ANALYSIS=DISCONTINUOUS
*MODEL CHANGE, ADD = STRAIN FREE 
E_STEP_29
*SFILM
RIGHT_27, F, 20, 0.0
*SRADIATE
RIGHT_27, R, 20, 0.0
*OUTPUT, FIELD, VARIABLE = PRESELECT, NUMBER INTERVAL = 1
*OUTPUT, HISTORY, VARIABLE = PRESELECT
*NODE FILE, NSET=ALLNODES, FREQUENCY = 10
NT
*OUTPUT, FIELD
*NODE OUTPUT, NSET=ALLNODES
*END STEP


*STEP,NAME = STEP_30, INC= 20000
*HEAT TRANSFER, DELTMX = 10.
0.01, 0.09140000000000015, 1e-9, 0.09140000000000015
*CONTROLS, ANALYSIS=DISCONTINUOUS
*MODEL CHANGE, ADD = STRAIN FREE 
E_STEP_30
*SFILM
RIGHT_26, F, 20, 0.0
*SRADIATE
RIGHT_26, R, 20, 0.0
*OUTPUT, FIELD, VARIABLE = PRESELECT, NUMBER INTERVAL = 1
*OUTPUT, HISTORY, VARIABLE = PRESELECT
*NODE FILE, NSET=ALLNODES, FREQUENCY = 10
NT
*OUTPUT, FIELD
*NODE OUTPUT, NSET=ALLNODES
*END STEP


*STEP,NAME = STEP_31, INC= 20000
*HEAT TRANSFER, DELTMX = 10.
0.01, 0.09140000000000015, 1e-9, 0.09140000000000015
*CONTROLS, ANALYSIS=DISCONTINUOUS
*MODEL CHANGE, ADD = STRAIN FREE 
E_STEP_31
*SFILM
RIGHT_25, F, 20, 0.0
*SRADIATE
RIGHT_25, R, 20, 0.0
*OUTPUT, FIELD, VARIABLE = PRESELECT, NUMBER INTERVAL = 1
*OUTPUT, HISTORY, VARIABLE = PRESELECT
*NODE FILE, NSET=ALLNODES, FREQUENCY = 10
NT
*OUTPUT, FIELD
*NODE OUTPUT, NSET=ALLNODES
*END STEP


*STEP,NAME = STEP_32, INC= 20000
*HEAT TRANSFER, DELTMX = 10.
0.01, 0.09139999999999926, 1e-9, 0.09139999999999926
*CONTROLS, ANALYSIS=DISCONTINUOUS
*MODEL CHANGE, ADD = STRAIN FREE 
E_STEP_32
*SFILM
RIGHT_24, F, 20, 0.0
*SRADIATE
RIGHT_24, R, 20, 0.0
*OUTPUT, FIELD, VARIABLE = PRESELECT, NUMBER INTERVAL = 1
*OUTPUT, HISTORY, VARIABLE = PRESELECT
*NODE FILE, NSET=ALLNODES, FREQUENCY = 10
NT
*OUTPUT, FIELD
*NODE OUTPUT, NSET=ALLNODES
*END STEP


*STEP,NAME = STEP_33, INC= 20000
*HEAT TRANSFER, DELTMX = 10.
0.01, 0.09140000000000015, 1e-9, 0.09140000000000015
*CONTROLS, ANALYSIS=DISCONTINUOUS
*MODEL CHANGE, ADD = STRAIN FREE 
E_STEP_33
*SFILM
RIGHT_23, F, 20, 0.0
*SRADIATE
RIGHT_23, R, 20, 0.0
*OUTPUT, FIELD, VARIABLE = PRESELECT, NUMBER INTERVAL = 1
*OUTPUT, HISTORY, VARIABLE = PRESELECT
*NODE FILE, NSET=ALLNODES, FREQUENCY = 10
NT
*OUTPUT, FIELD
*NODE OUTPUT, NSET=ALLNODES
*END STEP


*STEP,NAME = STEP_34, INC= 20000
*HEAT TRANSFER, DELTMX = 10.
0.01, 0.09140000000000015, 1e-9, 0.09140000000000015
*CONTROLS, ANALYSIS=DISCONTINUOUS
*MODEL CHANGE, ADD = STRAIN FREE 
E_STEP_34
*SFILM
RIGHT_22, F, 20, 0.0
*SRADIATE
RIGHT_22, R, 20, 0.0
*OUTPUT, FIELD, VARIABLE = PRESELECT, NUMBER INTERVAL = 1
*OUTPUT, HISTORY, VARIABLE = PRESELECT
*NODE FILE, NSET=ALLNODES, FREQUENCY = 10
NT
*OUTPUT, FIELD
*NODE OUTPUT, NSET=ALLNODES
*END STEP


*STEP,NAME = STEP_35, INC= 20000
*HEAT TRANSFER, DELTMX = 10.
0.01, 0.09140000000000015, 1e-9, 0.09140000000000015
*CONTROLS, ANALYSIS=DISCONTINUOUS
*OUTPUT, FIELD, VARIABLE = PRESELECT, NUMBER INTERVAL = 1
*OUTPUT, HISTORY, VARIABLE = PRESELECT
*NODE FILE, NSET=ALLNODES, FREQUENCY = 10
NT
*OUTPUT, FIELD
*NODE OUTPUT, NSET=ALLNODES
*END STEP


*STEP,NAME = STEP_36, INC= 20000
*HEAT TRANSFER, DELTMX = 10.
0.01, 0.09140000000000015, 1e-9, 0.09140000000000015
*CONTROLS, ANALYSIS=DISCONTINUOUS
*MODEL CHANGE, ADD = STRAIN FREE 
E_STEP_36
*SFILM
LEFT_34, F, 20, 0.0
*SRADIATE
LEFT_34, R, 20, 0.0
*OUTPUT, FIELD, VARIABLE = PRESELECT, NUMBER INTERVAL = 1
*OUTPUT, HISTORY, VARIABLE = PRESELECT
*NODE FILE, NSET=ALLNODES, FREQUENCY = 10
NT
*OUTPUT, FIELD
*NODE OUTPUT, NSET=ALLNODES
*END STEP


*STEP,NAME = STEP_37, INC= 20000
*HEAT TRANSFER, DELTMX = 10.
0.01, 0.09140000000000015, 1e-9, 0.09140000000000015
*CONTROLS, ANALYSIS=DISCONTINUOUS
*MODEL CHANGE, ADD = STRAIN FREE 
E_STEP_37
*SFILM
LEFT_33, F, 20, 0.0
*SRADIATE
LEFT_33, R, 20, 0.0
*OUTPUT, FIELD, VARIABLE = PRESELECT, NUMBER INTERVAL = 1
*OUTPUT, HISTORY, VARIABLE = PRESELECT
*NODE FILE, NSET=ALLNODES, FREQUENCY = 10
NT
*OUTPUT, FIELD
*NODE OUTPUT, NSET=ALLNODES
*END STEP


*STEP,NAME = STEP_38, INC= 20000
*HEAT TRANSFER, DELTMX = 10.
0.01, 0.09139999999999926, 1e-9, 0.09139999999999926
*CONTROLS, ANALYSIS=DISCONTINUOUS
*MODEL CHANGE, ADD = STRAIN FREE 
E_STEP_38
*SFILM
LEFT_32, F, 20, 0.0
*SRADIATE
LEFT_32, R, 20, 0.0
*OUTPUT, FIELD, VARIABLE = PRESELECT, NUMBER INTERVAL = 1
*OUTPUT, HISTORY, VARIABLE = PRESELECT
*NODE FILE, NSET=ALLNODES, FREQUENCY = 10
NT
*OUTPUT, FIELD
*NODE OUTPUT, NSET=ALLNODES
*END STEP


*STEP,NAME = STEP_39, INC= 20000
*HEAT TRANSFER, DELTMX = 10.
0.01, 0.09140000000000015, 1e-9, 0.09140000000000015
*CONTROLS, ANALYSIS=DISCONTINUOUS
*MODEL CHANGE, ADD = STRAIN FREE 
E_STEP_39
*SFILM
LEFT_31, F, 20, 0.0
*SRADIATE
LEFT_31, R, 20, 0.0
*OUTPUT, FIELD, VARIABLE = PRESELECT, NUMBER INTERVAL = 1
*OUTPUT, HISTORY, VARIABLE = PRESELECT
*NODE FILE, NSET=ALLNODES, FREQUENCY = 10
NT
*OUTPUT, FIELD
*NODE OUTPUT, NSET=ALLNODES
*END STEP


*STEP,NAME = STEP_40, INC= 20000
*HEAT TRANSFER, DELTMX = 10.
0.01, 0.09140000000000015, 1e-9, 0.09140000000000015
*CONTROLS, ANALYSIS=DISCONTINUOUS
*MODEL CHANGE, ADD = STRAIN FREE 
E_STEP_40
*SFILM
LEFT_30, F, 20, 0.0
*SRADIATE
LEFT_30, R, 20, 0.0
*OUTPUT, FIELD, VARIABLE = PRESELECT, NUMBER INTERVAL = 1
*OUTPUT, HISTORY, VARIABLE = PRESELECT
*NODE FILE, NSET=ALLNODES, FREQUENCY = 10
NT
*OUTPUT, FIELD
*NODE OUTPUT, NSET=ALLNODES
*END STEP


*STEP,NAME = STEP_41, INC= 20000
*HEAT TRANSFER, DELTMX = 10.
0.01, 0.09140000000000015, 1e-9, 0.09140000000000015
*CONTROLS, ANALYSIS=DISCONTINUOUS
*MODEL CHANGE, ADD = STRAIN FREE 
E_STEP_41
*SFILM
LEFT_29, F, 20, 0.0
*SRADIATE
LEFT_29, R, 20, 0.0
*OUTPUT, FIELD, VARIABLE = PRESELECT, NUMBER INTERVAL = 1
*OUTPUT, HISTORY, VARIABLE = PRESELECT
*NODE FILE, NSET=ALLNODES, FREQUENCY = 10
NT
*OUTPUT, FIELD
*NODE OUTPUT, NSET=ALLNODES
*END STEP


*STEP,NAME = STEP_42, INC= 20000
*HEAT TRANSFER, DELTMX = 10.
0.01, 0.09140000000000015, 1e-9, 0.09140000000000015
*CONTROLS, ANALYSIS=DISCONTINUOUS
*OUTPUT, FIELD, VARIABLE = PRESELECT, NUMBER INTERVAL = 1
*OUTPUT, HISTORY, VARIABLE = PRESELECT
*NODE FILE, NSET=ALLNODES, FREQUENCY = 10
NT
*OUTPUT, FIELD
*NODE OUTPUT, NSET=ALLNODES
*END STEP


*STEP,NAME = STEP_43, INC= 20000
*HEAT TRANSFER, DELTMX = 10.
0.01, 15.04089666666667, 1e-9, 15.04089666666667
*CONTROLS, ANALYSIS=DISCONTINUOUS
*OUTPUT, FIELD, VARIABLE = PRESELECT, NUMBER INTERVAL = 1
*OUTPUT, HISTORY, VARIABLE = PRESELECT
*NODE FILE, NSET=ALLNODES, FREQUENCY = 10
NT
*OUTPUT, FIELD
*NODE OUTPUT, NSET=ALLNODES
*END STEP


*STEP,NAME = STEP_44, INC= 20000
*HEAT TRANSFER, DELTMX = 10.
0.01, 0.09140000000000015, 1e-9, 0.09140000000000015
*CONTROLS, ANALYSIS=DISCONTINUOUS
*MODEL CHANGE, ADD = STRAIN FREE 
E_STEP_44
*SFILM
UP_1, F, 20, 0.0
*SRADIATE
UP_1, R, 20, 0.0
*OUTPUT, FIELD, VARIABLE = PRESELECT, NUMBER INTERVAL = 1
*OUTPUT, HISTORY, VARIABLE = PRESELECT
*NODE FILE, NSET=ALLNODES, FREQUENCY = 10
NT
*OUTPUT, FIELD
*NODE OUTPUT, NSET=ALLNODES
*END STEP


*STEP,NAME = STEP_45, INC= 20000
*HEAT TRANSFER, DELTMX = 10.
0.01, 0.09140000000000015, 1e-9, 0.09140000000000015
*CONTROLS, ANALYSIS=DISCONTINUOUS
*MODEL CHANGE, ADD = STRAIN FREE 
E_STEP_45
*SFILM
UP_2, F, 20, 0.0
*SRADIATE
UP_2, R, 20, 0.0
*OUTPUT, FIELD, VARIABLE = PRESELECT, NUMBER INTERVAL = 1
*OUTPUT, HISTORY, VARIABLE = PRESELECT
*NODE FILE, NSET=ALLNODES, FREQUENCY = 10
NT
*OUTPUT, FIELD
*NODE OUTPUT, NSET=ALLNODES
*END STEP


*STEP,NAME = STEP_46, INC= 20000
*HEAT TRANSFER, DELTMX = 10.
0.01, 0.09140000000000015, 1e-9, 0.09140000000000015
*CONTROLS, ANALYSIS=DISCONTINUOUS
*MODEL CHANGE, ADD = STRAIN FREE 
E_STEP_46
*SFILM
UP_3, F, 20, 0.0
*SRADIATE
UP_3, R, 20, 0.0
*OUTPUT, FIELD, VARIABLE = PRESELECT, NUMBER INTERVAL = 1
*OUTPUT, HISTORY, VARIABLE = PRESELECT
*NODE FILE, NSET=ALLNODES, FREQUENCY = 10
NT
*OUTPUT, FIELD
*NODE OUTPUT, NSET=ALLNODES
*END STEP


*STEP,NAME = STEP_47, INC= 20000
*HEAT TRANSFER, DELTMX = 10.
0.01, 0.09140000000000015, 1e-9, 0.09140000000000015
*CONTROLS, ANALYSIS=DISCONTINUOUS
*MODEL CHANGE, ADD = STRAIN FREE 
E_STEP_47
*SFILM
UP_4, F, 20, 0.0
*SRADIATE
UP_4, R, 20, 0.0
*OUTPUT, FIELD, VARIABLE = PRESELECT, NUMBER INTERVAL = 1
*OUTPUT, HISTORY, VARIABLE = PRESELECT
*NODE FILE, NSET=ALLNODES, FREQUENCY = 10
NT
*OUTPUT, FIELD
*NODE OUTPUT, NSET=ALLNODES
*END STEP


*STEP,NAME = STEP_48, INC= 20000
*HEAT TRANSFER, DELTMX = 10.
0.01, 0.09140000000000015, 1e-9, 0.09140000000000015
*CONTROLS, ANALYSIS=DISCONTINUOUS
*MODEL CHANGE, ADD = STRAIN FREE 
E_STEP_48
*SFILM
UP_5, F, 20, 0.0
*SRADIATE
UP_5, R, 20, 0.0
*OUTPUT, FIELD, VARIABLE = PRESELECT, NUMBER INTERVAL = 1
*OUTPUT, HISTORY, VARIABLE = PRESELECT
*NODE FILE, NSET=ALLNODES, FREQUENCY = 10
NT
*OUTPUT, FIELD
*NODE OUTPUT, NSET=ALLNODES
*END STEP


*STEP,NAME = STEP_49, INC= 20000
*HEAT TRANSFER, DELTMX = 10.
0.01, 0.09140000000000015, 1e-9, 0.09140000000000015
*CONTROLS, ANALYSIS=DISCONTINUOUS
*MODEL CHANGE, ADD = STRAIN FREE 
E_STEP_49
*SFILM
UP_6, F, 20, 0.0
*SRADIATE
UP_6, R, 20, 0.0
*OUTPUT, FIELD, VARIABLE = PRESELECT, NUMBER INTERVAL = 1
*OUTPUT, HISTORY, VARIABLE = PRESELECT
*NODE FILE, NSET=ALLNODES, FREQUENCY = 10
NT
*OUTPUT, FIELD
*NODE OUTPUT, NSET=ALLNODES
*END STEP


*STEP,NAME = STEP_50, INC= 20000
*HEAT TRANSFER, DELTMX = 10.
0.01, 0.09140000000000015, 1e-9, 0.09140000000000015
*CONTROLS, ANALYSIS=DISCONTINUOUS
*OUTPUT, FIELD, VARIABLE = PRESELECT, NUMBER INTERVAL = 1
*OUTPUT, HISTORY, VARIABLE = PRESELECT
*NODE FILE, NSET=ALLNODES, FREQUENCY = 10
NT
*OUTPUT, FIELD
*NODE OUTPUT, NSET=ALLNODES
*END STEP


*STEP,NAME = STEP_51, INC= 20000
*HEAT TRANSFER, DELTMX = 10.
0.01, 0.09140000000000015, 1e-9, 0.09140000000000015
*CONTROLS, ANALYSIS=DISCONTINUOUS
*MODEL CHANGE, ADD = STRAIN FREE 
E_STEP_51
*SFILM
UP_8, F, 20, 0.0
*SRADIATE
UP_8, R, 20, 0.0
*SFILM
LEFT_49, F, 20, 0.0
*SRADIATE
LEFT_49, R, 20, 0.0
*OUTPUT, FIELD, VARIABLE = PRESELECT, NUMBER INTERVAL = 1
*OUTPUT, HISTORY, VARIABLE = PRESELECT
*NODE FILE, NSET=ALLNODES, FREQUENCY = 10
NT
*OUTPUT, FIELD
*NODE OUTPUT, NSET=ALLNODES
*END STEP


*STEP,NAME = STEP_52, INC= 20000
*HEAT TRANSFER, DELTMX = 10.
0.01, 0.09140000000000015, 1e-9, 0.09140000000000015
*CONTROLS, ANALYSIS=DISCONTINUOUS
*MODEL CHANGE, ADD = STRAIN FREE 
E_STEP_52
*SFILM
UP_9, F, 20, 0.0
*SRADIATE
UP_9, R, 20, 0.0
*SFILM
LEFT_48, F, 20, 0.0
*SRADIATE
LEFT_48, R, 20, 0.0
*OUTPUT, FIELD, VARIABLE = PRESELECT, NUMBER INTERVAL = 1
*OUTPUT, HISTORY, VARIABLE = PRESELECT
*NODE FILE, NSET=ALLNODES, FREQUENCY = 10
NT
*OUTPUT, FIELD
*NODE OUTPUT, NSET=ALLNODES
*END STEP


*STEP,NAME = STEP_53, INC= 20000
*HEAT TRANSFER, DELTMX = 10.
0.01, 0.09140000000000015, 1e-9, 0.09140000000000015
*CONTROLS, ANALYSIS=DISCONTINUOUS
*MODEL CHANGE, ADD = STRAIN FREE 
E_STEP_53
*SFILM
UP_10, F, 20, 0.0
*SRADIATE
UP_10, R, 20, 0.0
*SFILM
LEFT_47, F, 20, 0.0
*SRADIATE
LEFT_47, R, 20, 0.0
*OUTPUT, FIELD, VARIABLE = PRESELECT, NUMBER INTERVAL = 1
*OUTPUT, HISTORY, VARIABLE = PRESELECT
*NODE FILE, NSET=ALLNODES, FREQUENCY = 10
NT
*OUTPUT, FIELD
*NODE OUTPUT, NSET=ALLNODES
*END STEP


*STEP,NAME = STEP_54, INC= 20000
*HEAT TRANSFER, DELTMX = 10.
0.01, 0.09140000000000015, 1e-9, 0.09140000000000015
*CONTROLS, ANALYSIS=DISCONTINUOUS
*MODEL CHANGE, ADD = STRAIN FREE 
E_STEP_54
*SFILM
UP_11, F, 20, 0.0
*SRADIATE
UP_11, R, 20, 0.0
*SFILM
LEFT_46, F, 20, 0.0
*SRADIATE
LEFT_46, R, 20, 0.0
*OUTPUT, FIELD, VARIABLE = PRESELECT, NUMBER INTERVAL = 1
*OUTPUT, HISTORY, VARIABLE = PRESELECT
*NODE FILE, NSET=ALLNODES, FREQUENCY = 10
NT
*OUTPUT, FIELD
*NODE OUTPUT, NSET=ALLNODES
*END STEP


*STEP,NAME = STEP_55, INC= 20000
*HEAT TRANSFER, DELTMX = 10.
0.01, 0.09140000000000015, 1e-9, 0.09140000000000015
*CONTROLS, ANALYSIS=DISCONTINUOUS
*MODEL CHANGE, ADD = STRAIN FREE 
E_STEP_55
*SFILM
UP_12, F, 20, 0.0
*SRADIATE
UP_12, R, 20, 0.0
*SFILM
LEFT_45, F, 20, 0.0
*SRADIATE
LEFT_45, R, 20, 0.0
*OUTPUT, FIELD, VARIABLE = PRESELECT, NUMBER INTERVAL = 1
*OUTPUT, HISTORY, VARIABLE = PRESELECT
*NODE FILE, NSET=ALLNODES, FREQUENCY = 10
NT
*OUTPUT, FIELD
*NODE OUTPUT, NSET=ALLNODES
*END STEP


*STEP,NAME = STEP_56, INC= 20000
*HEAT TRANSFER, DELTMX = 10.
0.01, 0.09140000000000015, 1e-9, 0.09140000000000015
*CONTROLS, ANALYSIS=DISCONTINUOUS
*MODEL CHANGE, ADD = STRAIN FREE 
E_STEP_56
*SFILM
UP_13, F, 20, 0.0
*SRADIATE
UP_13, R, 20, 0.0
*SFILM
LEFT_44, F, 20, 0.0
*SRADIATE
LEFT_44, R, 20, 0.0
*OUTPUT, FIELD, VARIABLE = PRESELECT, NUMBER INTERVAL = 1
*OUTPUT, HISTORY, VARIABLE = PRESELECT
*NODE FILE, NSET=ALLNODES, FREQUENCY = 10
NT
*OUTPUT, FIELD
*NODE OUTPUT, NSET=ALLNODES
*END STEP


*STEP,NAME = STEP_57, INC= 20000
*HEAT TRANSFER, DELTMX = 10.
0.01, 0.09140000000000015, 1e-9, 0.09140000000000015
*CONTROLS, ANALYSIS=DISCONTINUOUS
*OUTPUT, FIELD, VARIABLE = PRESELECT, NUMBER INTERVAL = 1
*OUTPUT, HISTORY, VARIABLE = PRESELECT
*NODE FILE, NSET=ALLNODES, FREQUENCY = 10
NT
*OUTPUT, FIELD
*NODE OUTPUT, NSET=ALLNODES
*END STEP


*STEP,NAME = STEP_58, INC= 20000
*HEAT TRANSFER, DELTMX = 10.
0.01, 0.09140000000000015, 1e-9, 0.09140000000000015
*CONTROLS, ANALYSIS=DISCONTINUOUS
*MODEL CHANGE, ADD = STRAIN FREE 
E_STEP_58
*SFILM
UP_15, F, 20, 0.0
*SRADIATE
UP_15, R, 20, 0.0
*SFILM
RIGHT_56, F, 20, 0.0
*SRADIATE
RIGHT_56, R, 20, 0.0
*OUTPUT, FIELD, VARIABLE = PRESELECT, NUMBER INTERVAL = 1
*OUTPUT, HISTORY, VARIABLE = PRESELECT
*NODE FILE, NSET=ALLNODES, FREQUENCY = 10
NT
*OUTPUT, FIELD
*NODE OUTPUT, NSET=ALLNODES
*END STEP


*STEP,NAME = STEP_59, INC= 20000
*HEAT TRANSFER, DELTMX = 10.
0.01, 0.09140000000000015, 1e-9, 0.09140000000000015
*CONTROLS, ANALYSIS=DISCONTINUOUS
*MODEL CHANGE, ADD = STRAIN FREE 
E_STEP_59
*SFILM
UP_16, F, 20, 0.0
*SRADIATE
UP_16, R, 20, 0.0
*SFILM
RIGHT_55, F, 20, 0.0
*SRADIATE
RIGHT_55, R, 20, 0.0
*OUTPUT, FIELD, VARIABLE = PRESELECT, NUMBER INTERVAL = 1
*OUTPUT, HISTORY, VARIABLE = PRESELECT
*NODE FILE, NSET=ALLNODES, FREQUENCY = 10
NT
*OUTPUT, FIELD
*NODE OUTPUT, NSET=ALLNODES
*END STEP


*STEP,NAME = STEP_60, INC= 20000
*HEAT TRANSFER, DELTMX = 10.
0.01, 0.09140000000000015, 1e-9, 0.09140000000000015
*CONTROLS, ANALYSIS=DISCONTINUOUS
*MODEL CHANGE, ADD = STRAIN FREE 
E_STEP_60
*SFILM
UP_17, F, 20, 0.0
*SRADIATE
UP_17, R, 20, 0.0
*SFILM
RIGHT_54, F, 20, 0.0
*SRADIATE
RIGHT_54, R, 20, 0.0
*OUTPUT, FIELD, VARIABLE = PRESELECT, NUMBER INTERVAL = 1
*OUTPUT, HISTORY, VARIABLE = PRESELECT
*NODE FILE, NSET=ALLNODES, FREQUENCY = 10
NT
*OUTPUT, FIELD
*NODE OUTPUT, NSET=ALLNODES
*END STEP


*STEP,NAME = STEP_61, INC= 20000
*HEAT TRANSFER, DELTMX = 10.
0.01, 0.09140000000000015, 1e-9, 0.09140000000000015
*CONTROLS, ANALYSIS=DISCONTINUOUS
*MODEL CHANGE, ADD = STRAIN FREE 
E_STEP_61
*SFILM
UP_18, F, 20, 0.0
*SRADIATE
UP_18, R, 20, 0.0
*SFILM
RIGHT_53, F, 20, 0.0
*SRADIATE
RIGHT_53, R, 20, 0.0
*OUTPUT, FIELD, VARIABLE = PRESELECT, NUMBER INTERVAL = 1
*OUTPUT, HISTORY, VARIABLE = PRESELECT
*NODE FILE, NSET=ALLNODES, FREQUENCY = 10
NT
*OUTPUT, FIELD
*NODE OUTPUT, NSET=ALLNODES
*END STEP


*STEP,NAME = STEP_62, INC= 20000
*HEAT TRANSFER, DELTMX = 10.
0.01, 0.09140000000000015, 1e-9, 0.09140000000000015
*CONTROLS, ANALYSIS=DISCONTINUOUS
*MODEL CHANGE, ADD = STRAIN FREE 
E_STEP_62
*SFILM
UP_19, F, 20, 0.0
*SRADIATE
UP_19, R, 20, 0.0
*SFILM
RIGHT_52, F, 20, 0.0
*SRADIATE
RIGHT_52, R, 20, 0.0
*OUTPUT, FIELD, VARIABLE = PRESELECT, NUMBER INTERVAL = 1
*OUTPUT, HISTORY, VARIABLE = PRESELECT
*NODE FILE, NSET=ALLNODES, FREQUENCY = 10
NT
*OUTPUT, FIELD
*NODE OUTPUT, NSET=ALLNODES
*END STEP


*STEP,NAME = STEP_63, INC= 20000
*HEAT TRANSFER, DELTMX = 10.
0.01, 0.09140000000000015, 1e-9, 0.09140000000000015
*CONTROLS, ANALYSIS=DISCONTINUOUS
*MODEL CHANGE, ADD = STRAIN FREE 
E_STEP_63
*SFILM
UP_20, F, 20, 0.0
*SRADIATE
UP_20, R, 20, 0.0
*SFILM
RIGHT_51, F, 20, 0.0
*SRADIATE
RIGHT_51, R, 20, 0.0
*OUTPUT, FIELD, VARIABLE = PRESELECT, NUMBER INTERVAL = 1
*OUTPUT, HISTORY, VARIABLE = PRESELECT
*NODE FILE, NSET=ALLNODES, FREQUENCY = 10
NT
*OUTPUT, FIELD
*NODE OUTPUT, NSET=ALLNODES
*END STEP


*STEP,NAME = STEP_64, INC= 20000
*HEAT TRANSFER, DELTMX = 10.
0.01, 0.09140000000000015, 1e-9, 0.09140000000000015
*CONTROLS, ANALYSIS=DISCONTINUOUS
*OUTPUT, FIELD, VARIABLE = PRESELECT, NUMBER INTERVAL = 1
*OUTPUT, HISTORY, VARIABLE = PRESELECT
*NODE FILE, NSET=ALLNODES, FREQUENCY = 10
NT
*OUTPUT, FIELD
*NODE OUTPUT, NSET=ALLNODES
*END STEP


*STEP,NAME = STEP_65, INC= 20000
*HEAT TRANSFER, DELTMX = 10.
0.01, 0.09140000000000015, 1e-9, 0.09140000000000015
*CONTROLS, ANALYSIS=DISCONTINUOUS
*MODEL CHANGE, ADD = STRAIN FREE 
E_STEP_65
*SFILM
UP_22, F, 20, 0.0
*SRADIATE
UP_22, R, 20, 0.0
*SFILM
LEFT_63, F, 20, 0.0
*SRADIATE
LEFT_63, R, 20, 0.0
*OUTPUT, FIELD, VARIABLE = PRESELECT, NUMBER INTERVAL = 1
*OUTPUT, HISTORY, VARIABLE = PRESELECT
*NODE FILE, NSET=ALLNODES, FREQUENCY = 10
NT
*OUTPUT, FIELD
*NODE OUTPUT, NSET=ALLNODES
*END STEP


*STEP,NAME = STEP_66, INC= 20000
*HEAT TRANSFER, DELTMX = 10.
0.01, 0.09140000000000015, 1e-9, 0.09140000000000015
*CONTROLS, ANALYSIS=DISCONTINUOUS
*MODEL CHANGE, ADD = STRAIN FREE 
E_STEP_66
*SFILM
UP_23, F, 20, 0.0
*SRADIATE
UP_23, R, 20, 0.0
*SFILM
LEFT_62, F, 20, 0.0
*SRADIATE
LEFT_62, R, 20, 0.0
*OUTPUT, FIELD, VARIABLE = PRESELECT, NUMBER INTERVAL = 1
*OUTPUT, HISTORY, VARIABLE = PRESELECT
*NODE FILE, NSET=ALLNODES, FREQUENCY = 10
NT
*OUTPUT, FIELD
*NODE OUTPUT, NSET=ALLNODES
*END STEP


*STEP,NAME = STEP_67, INC= 20000
*HEAT TRANSFER, DELTMX = 10.
0.01, 0.09140000000000015, 1e-9, 0.09140000000000015
*CONTROLS, ANALYSIS=DISCONTINUOUS
*MODEL CHANGE, ADD = STRAIN FREE 
E_STEP_67
*SFILM
UP_24, F, 20, 0.0
*SRADIATE
UP_24, R, 20, 0.0
*SFILM
LEFT_61, F, 20, 0.0
*SRADIATE
LEFT_61, R, 20, 0.0
*OUTPUT, FIELD, VARIABLE = PRESELECT, NUMBER INTERVAL = 1
*OUTPUT, HISTORY, VARIABLE = PRESELECT
*NODE FILE, NSET=ALLNODES, FREQUENCY = 10
NT
*OUTPUT, FIELD
*NODE OUTPUT, NSET=ALLNODES
*END STEP


*STEP,NAME = STEP_68, INC= 20000
*HEAT TRANSFER, DELTMX = 10.
0.01, 0.09140000000000015, 1e-9, 0.09140000000000015
*CONTROLS, ANALYSIS=DISCONTINUOUS
*MODEL CHANGE, ADD = STRAIN FREE 
E_STEP_68
*SFILM
UP_25, F, 20, 0.0
*SRADIATE
UP_25, R, 20, 0.0
*SFILM
LEFT_60, F, 20, 0.0
*SRADIATE
LEFT_60, R, 20, 0.0
*OUTPUT, FIELD, VARIABLE = PRESELECT, NUMBER INTERVAL = 1
*OUTPUT, HISTORY, VARIABLE = PRESELECT
*NODE FILE, NSET=ALLNODES, FREQUENCY = 10
NT
*OUTPUT, FIELD
*NODE OUTPUT, NSET=ALLNODES
*END STEP


*STEP,NAME = STEP_69, INC= 20000
*HEAT TRANSFER, DELTMX = 10.
0.01, 0.09140000000000015, 1e-9, 0.09140000000000015
*CONTROLS, ANALYSIS=DISCONTINUOUS
*MODEL CHANGE, ADD = STRAIN FREE 
E_STEP_69
*SFILM
UP_26, F, 20, 0.0
*SRADIATE
UP_26, R, 20, 0.0
*SFILM
LEFT_59, F, 20, 0.0
*SRADIATE
LEFT_59, R, 20, 0.0
*OUTPUT, FIELD, VARIABLE = PRESELECT, NUMBER INTERVAL = 1
*OUTPUT, HISTORY, VARIABLE = PRESELECT
*NODE FILE, NSET=ALLNODES, FREQUENCY = 10
NT
*OUTPUT, FIELD
*NODE OUTPUT, NSET=ALLNODES
*END STEP


*STEP,NAME = STEP_70, INC= 20000
*HEAT TRANSFER, DELTMX = 10.
0.01, 0.09140000000000015, 1e-9, 0.09140000000000015
*CONTROLS, ANALYSIS=DISCONTINUOUS
*MODEL CHANGE, ADD = STRAIN FREE 
E_STEP_70
*SFILM
UP_27, F, 20, 0.0
*SRADIATE
UP_27, R, 20, 0.0
*SFILM
LEFT_58, F, 20, 0.0
*SRADIATE
LEFT_58, R, 20, 0.0
*OUTPUT, FIELD, VARIABLE = PRESELECT, NUMBER INTERVAL = 1
*OUTPUT, HISTORY, VARIABLE = PRESELECT
*NODE FILE, NSET=ALLNODES, FREQUENCY = 10
NT
*OUTPUT, FIELD
*NODE OUTPUT, NSET=ALLNODES
*END STEP


*STEP,NAME = STEP_71, INC= 20000
*HEAT TRANSFER, DELTMX = 10.
0.01, 0.09140000000000015, 1e-9, 0.09140000000000015
*CONTROLS, ANALYSIS=DISCONTINUOUS
*OUTPUT, FIELD, VARIABLE = PRESELECT, NUMBER INTERVAL = 1
*OUTPUT, HISTORY, VARIABLE = PRESELECT
*NODE FILE, NSET=ALLNODES, FREQUENCY = 10
NT
*OUTPUT, FIELD
*NODE OUTPUT, NSET=ALLNODES
*END STEP


*STEP,NAME = STEP_72, INC= 20000
*HEAT TRANSFER, DELTMX = 10.
0.01, 0.09140000000000015, 1e-9, 0.09140000000000015
*CONTROLS, ANALYSIS=DISCONTINUOUS
*MODEL CHANGE, ADD = STRAIN FREE 
E_STEP_72
*SFILM
UP_29, F, 20, 0.0
*SRADIATE
UP_29, R, 20, 0.0
*SFILM
RIGHT_70, F, 20, 0.0
*SRADIATE
RIGHT_70, R, 20, 0.0
*OUTPUT, FIELD, VARIABLE = PRESELECT, NUMBER INTERVAL = 1
*OUTPUT, HISTORY, VARIABLE = PRESELECT
*NODE FILE, NSET=ALLNODES, FREQUENCY = 10
NT
*OUTPUT, FIELD
*NODE OUTPUT, NSET=ALLNODES
*END STEP


*STEP,NAME = STEP_73, INC= 20000
*HEAT TRANSFER, DELTMX = 10.
0.01, 0.09140000000000015, 1e-9, 0.09140000000000015
*CONTROLS, ANALYSIS=DISCONTINUOUS
*MODEL CHANGE, ADD = STRAIN FREE 
E_STEP_73
*SFILM
UP_30, F, 20, 0.0
*SRADIATE
UP_30, R, 20, 0.0
*SFILM
RIGHT_69, F, 20, 0.0
*SRADIATE
RIGHT_69, R, 20, 0.0
*OUTPUT, FIELD, VARIABLE = PRESELECT, NUMBER INTERVAL = 1
*OUTPUT, HISTORY, VARIABLE = PRESELECT
*NODE FILE, NSET=ALLNODES, FREQUENCY = 10
NT
*OUTPUT, FIELD
*NODE OUTPUT, NSET=ALLNODES
*END STEP


*STEP,NAME = STEP_74, INC= 20000
*HEAT TRANSFER, DELTMX = 10.
0.01, 0.09140000000000015, 1e-9, 0.09140000000000015
*CONTROLS, ANALYSIS=DISCONTINUOUS
*MODEL CHANGE, ADD = STRAIN FREE 
E_STEP_74
*SFILM
UP_31, F, 20, 0.0
*SRADIATE
UP_31, R, 20, 0.0
*SFILM
RIGHT_68, F, 20, 0.0
*SRADIATE
RIGHT_68, R, 20, 0.0
*OUTPUT, FIELD, VARIABLE = PRESELECT, NUMBER INTERVAL = 1
*OUTPUT, HISTORY, VARIABLE = PRESELECT
*NODE FILE, NSET=ALLNODES, FREQUENCY = 10
NT
*OUTPUT, FIELD
*NODE OUTPUT, NSET=ALLNODES
*END STEP


*STEP,NAME = STEP_75, INC= 20000
*HEAT TRANSFER, DELTMX = 10.
0.01, 0.09140000000000015, 1e-9, 0.09140000000000015
*CONTROLS, ANALYSIS=DISCONTINUOUS
*MODEL CHANGE, ADD = STRAIN FREE 
E_STEP_75
*SFILM
UP_32, F, 20, 0.0
*SRADIATE
UP_32, R, 20, 0.0
*SFILM
RIGHT_67, F, 20, 0.0
*SRADIATE
RIGHT_67, R, 20, 0.0
*OUTPUT, FIELD, VARIABLE = PRESELECT, NUMBER INTERVAL = 1
*OUTPUT, HISTORY, VARIABLE = PRESELECT
*NODE FILE, NSET=ALLNODES, FREQUENCY = 10
NT
*OUTPUT, FIELD
*NODE OUTPUT, NSET=ALLNODES
*END STEP


*STEP,NAME = STEP_76, INC= 20000
*HEAT TRANSFER, DELTMX = 10.
0.01, 0.09140000000000015, 1e-9, 0.09140000000000015
*CONTROLS, ANALYSIS=DISCONTINUOUS
*MODEL CHANGE, ADD = STRAIN FREE 
E_STEP_76
*SFILM
UP_33, F, 20, 0.0
*SRADIATE
UP_33, R, 20, 0.0
*SFILM
RIGHT_66, F, 20, 0.0
*SRADIATE
RIGHT_66, R, 20, 0.0
*OUTPUT, FIELD, VARIABLE = PRESELECT, NUMBER INTERVAL = 1
*OUTPUT, HISTORY, VARIABLE = PRESELECT
*NODE FILE, NSET=ALLNODES, FREQUENCY = 10
NT
*OUTPUT, FIELD
*NODE OUTPUT, NSET=ALLNODES
*END STEP


*STEP,NAME = STEP_77, INC= 20000
*HEAT TRANSFER, DELTMX = 10.
0.01, 0.09140000000000015, 1e-9, 0.09140000000000015
*CONTROLS, ANALYSIS=DISCONTINUOUS
*MODEL CHANGE, ADD = STRAIN FREE 
E_STEP_77
*SFILM
UP_34, F, 20, 0.0
*SRADIATE
UP_34, R, 20, 0.0
*SFILM
RIGHT_65, F, 20, 0.0
*SRADIATE
RIGHT_65, R, 20, 0.0
*OUTPUT, FIELD, VARIABLE = PRESELECT, NUMBER INTERVAL = 1
*OUTPUT, HISTORY, VARIABLE = PRESELECT
*NODE FILE, NSET=ALLNODES, FREQUENCY = 10
NT
*OUTPUT, FIELD
*NODE OUTPUT, NSET=ALLNODES
*END STEP


*STEP,NAME = STEP_78, INC= 20000
*HEAT TRANSFER, DELTMX = 10.
0.01, 0.09140000000000015, 1e-9, 0.09140000000000015
*CONTROLS, ANALYSIS=DISCONTINUOUS
*OUTPUT, FIELD, VARIABLE = PRESELECT, NUMBER INTERVAL = 1
*OUTPUT, HISTORY, VARIABLE = PRESELECT
*NODE FILE, NSET=ALLNODES, FREQUENCY = 10
NT
*OUTPUT, FIELD
*NODE OUTPUT, NSET=ALLNODES
*END STEP


*STEP,NAME = STEP_79, INC= 20000
*HEAT TRANSFER, DELTMX = 10.
0.01, 0.09140000000000015, 1e-9, 0.09140000000000015
*CONTROLS, ANALYSIS=DISCONTINUOUS
*MODEL CHANGE, ADD = STRAIN FREE 
E_STEP_79
*SFILM
UP_36, F, 20, 0.0
*SRADIATE
UP_36, R, 20, 0.0
*SFILM
LEFT_77, F, 20, 0.0
*SRADIATE
LEFT_77, R, 20, 0.0
*OUTPUT, FIELD, VARIABLE = PRESELECT, NUMBER INTERVAL = 1
*OUTPUT, HISTORY, VARIABLE = PRESELECT
*NODE FILE, NSET=ALLNODES, FREQUENCY = 10
NT
*OUTPUT, FIELD
*NODE OUTPUT, NSET=ALLNODES
*END STEP


*STEP,NAME = STEP_80, INC= 20000
*HEAT TRANSFER, DELTMX = 10.
0.01, 0.09140000000000015, 1e-9, 0.09140000000000015
*CONTROLS, ANALYSIS=DISCONTINUOUS
*MODEL CHANGE, ADD = STRAIN FREE 
E_STEP_80
*SFILM
UP_37, F, 20, 0.0
*SRADIATE
UP_37, R, 20, 0.0
*SFILM
LEFT_76, F, 20, 0.0
*SRADIATE
LEFT_76, R, 20, 0.0
*OUTPUT, FIELD, VARIABLE = PRESELECT, NUMBER INTERVAL = 1
*OUTPUT, HISTORY, VARIABLE = PRESELECT
*NODE FILE, NSET=ALLNODES, FREQUENCY = 10
NT
*OUTPUT, FIELD
*NODE OUTPUT, NSET=ALLNODES
*END STEP


*STEP,NAME = STEP_81, INC= 20000
*HEAT TRANSFER, DELTMX = 10.
0.01, 0.09140000000000015, 1e-9, 0.09140000000000015
*CONTROLS, ANALYSIS=DISCONTINUOUS
*MODEL CHANGE, ADD = STRAIN FREE 
E_STEP_81
*SFILM
UP_38, F, 20, 0.0
*SRADIATE
UP_38, R, 20, 0.0
*SFILM
LEFT_75, F, 20, 0.0
*SRADIATE
LEFT_75, R, 20, 0.0
*OUTPUT, FIELD, VARIABLE = PRESELECT, NUMBER INTERVAL = 1
*OUTPUT, HISTORY, VARIABLE = PRESELECT
*NODE FILE, NSET=ALLNODES, FREQUENCY = 10
NT
*OUTPUT, FIELD
*NODE OUTPUT, NSET=ALLNODES
*END STEP


*STEP,NAME = STEP_82, INC= 20000
*HEAT TRANSFER, DELTMX = 10.
0.01, 0.09140000000000015, 1e-9, 0.09140000000000015
*CONTROLS, ANALYSIS=DISCONTINUOUS
*MODEL CHANGE, ADD = STRAIN FREE 
E_STEP_82
*SFILM
UP_39, F, 20, 0.0
*SRADIATE
UP_39, R, 20, 0.0
*SFILM
LEFT_74, F, 20, 0.0
*SRADIATE
LEFT_74, R, 20, 0.0
*OUTPUT, FIELD, VARIABLE = PRESELECT, NUMBER INTERVAL = 1
*OUTPUT, HISTORY, VARIABLE = PRESELECT
*NODE FILE, NSET=ALLNODES, FREQUENCY = 10
NT
*OUTPUT, FIELD
*NODE OUTPUT, NSET=ALLNODES
*END STEP


*STEP,NAME = STEP_83, INC= 20000
*HEAT TRANSFER, DELTMX = 10.
0.01, 0.09140000000000015, 1e-9, 0.09140000000000015
*CONTROLS, ANALYSIS=DISCONTINUOUS
*MODEL CHANGE, ADD = STRAIN FREE 
E_STEP_83
*SFILM
UP_40, F, 20, 0.0
*SRADIATE
UP_40, R, 20, 0.0
*SFILM
LEFT_73, F, 20, 0.0
*SRADIATE
LEFT_73, R, 20, 0.0
*OUTPUT, FIELD, VARIABLE = PRESELECT, NUMBER INTERVAL = 1
*OUTPUT, HISTORY, VARIABLE = PRESELECT
*NODE FILE, NSET=ALLNODES, FREQUENCY = 10
NT
*OUTPUT, FIELD
*NODE OUTPUT, NSET=ALLNODES
*END STEP


*STEP,NAME = STEP_84, INC= 20000
*HEAT TRANSFER, DELTMX = 10.
0.01, 0.09140000000000015, 1e-9, 0.09140000000000015
*CONTROLS, ANALYSIS=DISCONTINUOUS
*MODEL CHANGE, ADD = STRAIN FREE 
E_STEP_84
*SFILM
UP_41, F, 20, 0.0
*SRADIATE
UP_41, R, 20, 0.0
*SFILM
LEFT_72, F, 20, 0.0
*SRADIATE
LEFT_72, R, 20, 0.0
*OUTPUT, FIELD, VARIABLE = PRESELECT, NUMBER INTERVAL = 1
*OUTPUT, HISTORY, VARIABLE = PRESELECT
*NODE FILE, NSET=ALLNODES, FREQUENCY = 10
NT
*OUTPUT, FIELD
*NODE OUTPUT, NSET=ALLNODES
*END STEP


*STEP,NAME = STEP_85, INC= 20000
*HEAT TRANSFER, DELTMX = 10.
0.01, 0.09140000000000015, 1e-9, 0.09140000000000015
*CONTROLS, ANALYSIS=DISCONTINUOUS
*OUTPUT, FIELD, VARIABLE = PRESELECT, NUMBER INTERVAL = 1
*OUTPUT, HISTORY, VARIABLE = PRESELECT
*NODE FILE, NSET=ALLNODES, FREQUENCY = 10
NT
*OUTPUT, FIELD
*NODE OUTPUT, NSET=ALLNODES
*END STEP


*STEP,NAME = STEP_86, INC= 20000
*HEAT TRANSFER, DELTMX = 10.
0.01, 15.040896666666665, 1e-9, 15.040896666666665
*CONTROLS, ANALYSIS=DISCONTINUOUS
*OUTPUT, FIELD, VARIABLE = PRESELECT, NUMBER INTERVAL = 1
*OUTPUT, HISTORY, VARIABLE = PRESELECT
*NODE FILE, NSET=ALLNODES, FREQUENCY = 10
NT
*OUTPUT, FIELD
*NODE OUTPUT, NSET=ALLNODES
*END STEP


*STEP,NAME = STEP_87, INC= 20000
*HEAT TRANSFER, DELTMX = 10.
0.01, 0.09140000000000015, 1e-9, 0.09140000000000015
*CONTROLS, ANALYSIS=DISCONTINUOUS
*MODEL CHANGE, ADD = STRAIN FREE 
E_STEP_87
*SFILM
UP_44, F, 20, 0.0
*SRADIATE
UP_44, R, 20, 0.0
*OUTPUT, FIELD, VARIABLE = PRESELECT, NUMBER INTERVAL = 1
*OUTPUT, HISTORY, VARIABLE = PRESELECT
*NODE FILE, NSET=ALLNODES, FREQUENCY = 10
NT
*OUTPUT, FIELD
*NODE OUTPUT, NSET=ALLNODES
*END STEP


*STEP,NAME = STEP_88, INC= 20000
*HEAT TRANSFER, DELTMX = 10.
0.01, 0.09140000000000015, 1e-9, 0.09140000000000015
*CONTROLS, ANALYSIS=DISCONTINUOUS
*MODEL CHANGE, ADD = STRAIN FREE 
E_STEP_88
*SFILM
UP_45, F, 20, 0.0
*SRADIATE
UP_45, R, 20, 0.0
*OUTPUT, FIELD, VARIABLE = PRESELECT, NUMBER INTERVAL = 1
*OUTPUT, HISTORY, VARIABLE = PRESELECT
*NODE FILE, NSET=ALLNODES, FREQUENCY = 10
NT
*OUTPUT, FIELD
*NODE OUTPUT, NSET=ALLNODES
*END STEP


*STEP,NAME = STEP_89, INC= 20000
*HEAT TRANSFER, DELTMX = 10.
0.01, 0.09140000000000015, 1e-9, 0.09140000000000015
*CONTROLS, ANALYSIS=DISCONTINUOUS
*MODEL CHANGE, ADD = STRAIN FREE 
E_STEP_89
*SFILM
UP_46, F, 20, 0.0
*SRADIATE
UP_46, R, 20, 0.0
*OUTPUT, FIELD, VARIABLE = PRESELECT, NUMBER INTERVAL = 1
*OUTPUT, HISTORY, VARIABLE = PRESELECT
*NODE FILE, NSET=ALLNODES, FREQUENCY = 10
NT
*OUTPUT, FIELD
*NODE OUTPUT, NSET=ALLNODES
*END STEP


*STEP,NAME = STEP_90, INC= 20000
*HEAT TRANSFER, DELTMX = 10.
0.01, 0.09140000000000015, 1e-9, 0.09140000000000015
*CONTROLS, ANALYSIS=DISCONTINUOUS
*MODEL CHANGE, ADD = STRAIN FREE 
E_STEP_90
*SFILM
UP_47, F, 20, 0.0
*SRADIATE
UP_47, R, 20, 0.0
*OUTPUT, FIELD, VARIABLE = PRESELECT, NUMBER INTERVAL = 1
*OUTPUT, HISTORY, VARIABLE = PRESELECT
*NODE FILE, NSET=ALLNODES, FREQUENCY = 10
NT
*OUTPUT, FIELD
*NODE OUTPUT, NSET=ALLNODES
*END STEP


*STEP,NAME = STEP_91, INC= 20000
*HEAT TRANSFER, DELTMX = 10.
0.01, 0.09140000000000015, 1e-9, 0.09140000000000015
*CONTROLS, ANALYSIS=DISCONTINUOUS
*MODEL CHANGE, ADD = STRAIN FREE 
E_STEP_91
*SFILM
UP_48, F, 20, 0.0
*SRADIATE
UP_48, R, 20, 0.0
*OUTPUT, FIELD, VARIABLE = PRESELECT, NUMBER INTERVAL = 1
*OUTPUT, HISTORY, VARIABLE = PRESELECT
*NODE FILE, NSET=ALLNODES, FREQUENCY = 10
NT
*OUTPUT, FIELD
*NODE OUTPUT, NSET=ALLNODES
*END STEP


*STEP,NAME = STEP_92, INC= 20000
*HEAT TRANSFER, DELTMX = 10.
0.01, 0.09140000000000015, 1e-9, 0.09140000000000015
*CONTROLS, ANALYSIS=DISCONTINUOUS
*MODEL CHANGE, ADD = STRAIN FREE 
E_STEP_92
*SFILM
UP_49, F, 20, 0.0
*SRADIATE
UP_49, R, 20, 0.0
*OUTPUT, FIELD, VARIABLE = PRESELECT, NUMBER INTERVAL = 1
*OUTPUT, HISTORY, VARIABLE = PRESELECT
*NODE FILE, NSET=ALLNODES, FREQUENCY = 10
NT
*OUTPUT, FIELD
*NODE OUTPUT, NSET=ALLNODES
*END STEP


*STEP,NAME = STEP_93, INC= 20000
*HEAT TRANSFER, DELTMX = 10.
0.01, 0.09140000000000015, 1e-9, 0.09140000000000015
*CONTROLS, ANALYSIS=DISCONTINUOUS
*OUTPUT, FIELD, VARIABLE = PRESELECT, NUMBER INTERVAL = 1
*OUTPUT, HISTORY, VARIABLE = PRESELECT
*NODE FILE, NSET=ALLNODES, FREQUENCY = 10
NT
*OUTPUT, FIELD
*NODE OUTPUT, NSET=ALLNODES
*END STEP


*STEP,NAME = STEP_94, INC= 20000
*HEAT TRANSFER, DELTMX = 10.
0.01, 0.09140000000000015, 1e-9, 0.09140000000000015
*CONTROLS, ANALYSIS=DISCONTINUOUS
*MODEL CHANGE, ADD = STRAIN FREE 
E_STEP_94
*SFILM
UP_51, F, 20, 0.0
*SRADIATE
UP_51, R, 20, 0.0
*SFILM
LEFT_92, F, 20, 0.0
*SRADIATE
LEFT_92, R, 20, 0.0
*OUTPUT, FIELD, VARIABLE = PRESELECT, NUMBER INTERVAL = 1
*OUTPUT, HISTORY, VARIABLE = PRESELECT
*NODE FILE, NSET=ALLNODES, FREQUENCY = 10
NT
*OUTPUT, FIELD
*NODE OUTPUT, NSET=ALLNODES
*END STEP


*STEP,NAME = STEP_95, INC= 20000
*HEAT TRANSFER, DELTMX = 10.
0.01, 0.09140000000000015, 1e-9, 0.09140000000000015
*CONTROLS, ANALYSIS=DISCONTINUOUS
*MODEL CHANGE, ADD = STRAIN FREE 
E_STEP_95
*SFILM
UP_52, F, 20, 0.0
*SRADIATE
UP_52, R, 20, 0.0
*SFILM
LEFT_91, F, 20, 0.0
*SRADIATE
LEFT_91, R, 20, 0.0
*OUTPUT, FIELD, VARIABLE = PRESELECT, NUMBER INTERVAL = 1
*OUTPUT, HISTORY, VARIABLE = PRESELECT
*NODE FILE, NSET=ALLNODES, FREQUENCY = 10
NT
*OUTPUT, FIELD
*NODE OUTPUT, NSET=ALLNODES
*END STEP


*STEP,NAME = STEP_96, INC= 20000
*HEAT TRANSFER, DELTMX = 10.
0.01, 0.09140000000000015, 1e-9, 0.09140000000000015
*CONTROLS, ANALYSIS=DISCONTINUOUS
*MODEL CHANGE, ADD = STRAIN FREE 
E_STEP_96
*SFILM
UP_53, F, 20, 0.0
*SRADIATE
UP_53, R, 20, 0.0
*SFILM
LEFT_90, F, 20, 0.0
*SRADIATE
LEFT_90, R, 20, 0.0
*OUTPUT, FIELD, VARIABLE = PRESELECT, NUMBER INTERVAL = 1
*OUTPUT, HISTORY, VARIABLE = PRESELECT
*NODE FILE, NSET=ALLNODES, FREQUENCY = 10
NT
*OUTPUT, FIELD
*NODE OUTPUT, NSET=ALLNODES
*END STEP


*STEP,NAME = STEP_97, INC= 20000
*HEAT TRANSFER, DELTMX = 10.
0.01, 0.09140000000000015, 1e-9, 0.09140000000000015
*CONTROLS, ANALYSIS=DISCONTINUOUS
*MODEL CHANGE, ADD = STRAIN FREE 
E_STEP_97
*SFILM
UP_54, F, 20, 0.0
*SRADIATE
UP_54, R, 20, 0.0
*SFILM
LEFT_89, F, 20, 0.0
*SRADIATE
LEFT_89, R, 20, 0.0
*OUTPUT, FIELD, VARIABLE = PRESELECT, NUMBER INTERVAL = 1
*OUTPUT, HISTORY, VARIABLE = PRESELECT
*NODE FILE, NSET=ALLNODES, FREQUENCY = 10
NT
*OUTPUT, FIELD
*NODE OUTPUT, NSET=ALLNODES
*END STEP


*STEP,NAME = STEP_98, INC= 20000
*HEAT TRANSFER, DELTMX = 10.
0.01, 0.09140000000000015, 1e-9, 0.09140000000000015
*CONTROLS, ANALYSIS=DISCONTINUOUS
*MODEL CHANGE, ADD = STRAIN FREE 
E_STEP_98
*SFILM
UP_55, F, 20, 0.0
*SRADIATE
UP_55, R, 20, 0.0
*SFILM
LEFT_88, F, 20, 0.0
*SRADIATE
LEFT_88, R, 20, 0.0
*OUTPUT, FIELD, VARIABLE = PRESELECT, NUMBER INTERVAL = 1
*OUTPUT, HISTORY, VARIABLE = PRESELECT
*NODE FILE, NSET=ALLNODES, FREQUENCY = 10
NT
*OUTPUT, FIELD
*NODE OUTPUT, NSET=ALLNODES
*END STEP


*STEP,NAME = STEP_99, INC= 20000
*HEAT TRANSFER, DELTMX = 10.
0.01, 0.09140000000000015, 1e-9, 0.09140000000000015
*CONTROLS, ANALYSIS=DISCONTINUOUS
*MODEL CHANGE, ADD = STRAIN FREE 
E_STEP_99
*SFILM
UP_56, F, 20, 0.0
*SRADIATE
UP_56, R, 20, 0.0
*SFILM
LEFT_87, F, 20, 0.0
*SRADIATE
LEFT_87, R, 20, 0.0
*OUTPUT, FIELD, VARIABLE = PRESELECT, NUMBER INTERVAL = 1
*OUTPUT, HISTORY, VARIABLE = PRESELECT
*NODE FILE, NSET=ALLNODES, FREQUENCY = 10
NT
*OUTPUT, FIELD
*NODE OUTPUT, NSET=ALLNODES
*END STEP


*STEP,NAME = STEP_100, INC= 20000
*HEAT TRANSFER, DELTMX = 10.
0.01, 0.09140000000000015, 1e-9, 0.09140000000000015
*CONTROLS, ANALYSIS=DISCONTINUOUS
*OUTPUT, FIELD, VARIABLE = PRESELECT, NUMBER INTERVAL = 1
*OUTPUT, HISTORY, VARIABLE = PRESELECT
*NODE FILE, NSET=ALLNODES, FREQUENCY = 10
NT
*OUTPUT, FIELD
*NODE OUTPUT, NSET=ALLNODES
*END STEP


*STEP,NAME = STEP_101, INC= 20000
*HEAT TRANSFER, DELTMX = 10.
0.01, 0.09140000000000015, 1e-9, 0.09140000000000015
*CONTROLS, ANALYSIS=DISCONTINUOUS
*MODEL CHANGE, ADD = STRAIN FREE 
E_STEP_101
*SFILM
UP_58, F, 20, 0.0
*SRADIATE
UP_58, R, 20, 0.0
*SFILM
RIGHT_99, F, 20, 0.0
*SRADIATE
RIGHT_99, R, 20, 0.0
*OUTPUT, FIELD, VARIABLE = PRESELECT, NUMBER INTERVAL = 1
*OUTPUT, HISTORY, VARIABLE = PRESELECT
*NODE FILE, NSET=ALLNODES, FREQUENCY = 10
NT
*OUTPUT, FIELD
*NODE OUTPUT, NSET=ALLNODES
*END STEP


*STEP,NAME = STEP_102, INC= 20000
*HEAT TRANSFER, DELTMX = 10.
0.01, 0.09140000000000015, 1e-9, 0.09140000000000015
*CONTROLS, ANALYSIS=DISCONTINUOUS
*MODEL CHANGE, ADD = STRAIN FREE 
E_STEP_102
*SFILM
UP_59, F, 20, 0.0
*SRADIATE
UP_59, R, 20, 0.0
*SFILM
RIGHT_98, F, 20, 0.0
*SRADIATE
RIGHT_98, R, 20, 0.0
*OUTPUT, FIELD, VARIABLE = PRESELECT, NUMBER INTERVAL = 1
*OUTPUT, HISTORY, VARIABLE = PRESELECT
*NODE FILE, NSET=ALLNODES, FREQUENCY = 10
NT
*OUTPUT, FIELD
*NODE OUTPUT, NSET=ALLNODES
*END STEP


*STEP,NAME = STEP_103, INC= 20000
*HEAT TRANSFER, DELTMX = 10.
0.01, 0.09140000000000015, 1e-9, 0.09140000000000015
*CONTROLS, ANALYSIS=DISCONTINUOUS
*MODEL CHANGE, ADD = STRAIN FREE 
E_STEP_103
*SFILM
UP_60, F, 20, 0.0
*SRADIATE
UP_60, R, 20, 0.0
*SFILM
RIGHT_97, F, 20, 0.0
*SRADIATE
RIGHT_97, R, 20, 0.0
*OUTPUT, FIELD, VARIABLE = PRESELECT, NUMBER INTERVAL = 1
*OUTPUT, HISTORY, VARIABLE = PRESELECT
*NODE FILE, NSET=ALLNODES, FREQUENCY = 10
NT
*OUTPUT, FIELD
*NODE OUTPUT, NSET=ALLNODES
*END STEP


*STEP,NAME = STEP_104, INC= 20000
*HEAT TRANSFER, DELTMX = 10.
0.01, 0.09140000000000015, 1e-9, 0.09140000000000015
*CONTROLS, ANALYSIS=DISCONTINUOUS
*MODEL CHANGE, ADD = STRAIN FREE 
E_STEP_104
*SFILM
UP_61, F, 20, 0.0
*SRADIATE
UP_61, R, 20, 0.0
*SFILM
RIGHT_96, F, 20, 0.0
*SRADIATE
RIGHT_96, R, 20, 0.0
*OUTPUT, FIELD, VARIABLE = PRESELECT, NUMBER INTERVAL = 1
*OUTPUT, HISTORY, VARIABLE = PRESELECT
*NODE FILE, NSET=ALLNODES, FREQUENCY = 10
NT
*OUTPUT, FIELD
*NODE OUTPUT, NSET=ALLNODES
*END STEP


*STEP,NAME = STEP_105, INC= 20000
*HEAT TRANSFER, DELTMX = 10.
0.01, 0.09140000000000015, 1e-9, 0.09140000000000015
*CONTROLS, ANALYSIS=DISCONTINUOUS
*MODEL CHANGE, ADD = STRAIN FREE 
E_STEP_105
*SFILM
UP_62, F, 20, 0.0
*SRADIATE
UP_62, R, 20, 0.0
*SFILM
RIGHT_95, F, 20, 0.0
*SRADIATE
RIGHT_95, R, 20, 0.0
*OUTPUT, FIELD, VARIABLE = PRESELECT, NUMBER INTERVAL = 1
*OUTPUT, HISTORY, VARIABLE = PRESELECT
*NODE FILE, NSET=ALLNODES, FREQUENCY = 10
NT
*OUTPUT, FIELD
*NODE OUTPUT, NSET=ALLNODES
*END STEP


*STEP,NAME = STEP_106, INC= 20000
*HEAT TRANSFER, DELTMX = 10.
0.01, 0.09140000000000015, 1e-9, 0.09140000000000015
*CONTROLS, ANALYSIS=DISCONTINUOUS
*MODEL CHANGE, ADD = STRAIN FREE 
E_STEP_106
*SFILM
UP_63, F, 20, 0.0
*SRADIATE
UP_63, R, 20, 0.0
*SFILM
RIGHT_94, F, 20, 0.0
*SRADIATE
RIGHT_94, R, 20, 0.0
*OUTPUT, FIELD, VARIABLE = PRESELECT, NUMBER INTERVAL = 1
*OUTPUT, HISTORY, VARIABLE = PRESELECT
*NODE FILE, NSET=ALLNODES, FREQUENCY = 10
NT
*OUTPUT, FIELD
*NODE OUTPUT, NSET=ALLNODES
*END STEP


*STEP,NAME = STEP_107, INC= 20000
*HEAT TRANSFER, DELTMX = 10.
0.01, 0.09140000000000015, 1e-9, 0.09140000000000015
*CONTROLS, ANALYSIS=DISCONTINUOUS
*OUTPUT, FIELD, VARIABLE = PRESELECT, NUMBER INTERVAL = 1
*OUTPUT, HISTORY, VARIABLE = PRESELECT
*NODE FILE, NSET=ALLNODES, FREQUENCY = 10
NT
*OUTPUT, FIELD
*NODE OUTPUT, NSET=ALLNODES
*END STEP


*STEP,NAME = STEP_108, INC= 20000
*HEAT TRANSFER, DELTMX = 10.
0.01, 0.09140000000000015, 1e-9, 0.09140000000000015
*CONTROLS, ANALYSIS=DISCONTINUOUS
*MODEL CHANGE, ADD = STRAIN FREE 
E_STEP_108
*SFILM
UP_65, F, 20, 0.0
*SRADIATE
UP_65, R, 20, 0.0
*SFILM
LEFT_106, F, 20, 0.0
*SRADIATE
LEFT_106, R, 20, 0.0
*OUTPUT, FIELD, VARIABLE = PRESELECT, NUMBER INTERVAL = 1
*OUTPUT, HISTORY, VARIABLE = PRESELECT
*NODE FILE, NSET=ALLNODES, FREQUENCY = 10
NT
*OUTPUT, FIELD
*NODE OUTPUT, NSET=ALLNODES
*END STEP


*STEP,NAME = STEP_109, INC= 20000
*HEAT TRANSFER, DELTMX = 10.
0.01, 0.09140000000000015, 1e-9, 0.09140000000000015
*CONTROLS, ANALYSIS=DISCONTINUOUS
*MODEL CHANGE, ADD = STRAIN FREE 
E_STEP_109
*SFILM
UP_66, F, 20, 0.0
*SRADIATE
UP_66, R, 20, 0.0
*SFILM
LEFT_105, F, 20, 0.0
*SRADIATE
LEFT_105, R, 20, 0.0
*OUTPUT, FIELD, VARIABLE = PRESELECT, NUMBER INTERVAL = 1
*OUTPUT, HISTORY, VARIABLE = PRESELECT
*NODE FILE, NSET=ALLNODES, FREQUENCY = 10
NT
*OUTPUT, FIELD
*NODE OUTPUT, NSET=ALLNODES
*END STEP


*STEP,NAME = STEP_110, INC= 20000
*HEAT TRANSFER, DELTMX = 10.
0.01, 0.09140000000000015, 1e-9, 0.09140000000000015
*CONTROLS, ANALYSIS=DISCONTINUOUS
*MODEL CHANGE, ADD = STRAIN FREE 
E_STEP_110
*SFILM
UP_67, F, 20, 0.0
*SRADIATE
UP_67, R, 20, 0.0
*SFILM
LEFT_104, F, 20, 0.0
*SRADIATE
LEFT_104, R, 20, 0.0
*OUTPUT, FIELD, VARIABLE = PRESELECT, NUMBER INTERVAL = 1
*OUTPUT, HISTORY, VARIABLE = PRESELECT
*NODE FILE, NSET=ALLNODES, FREQUENCY = 10
NT
*OUTPUT, FIELD
*NODE OUTPUT, NSET=ALLNODES
*END STEP


*STEP,NAME = STEP_111, INC= 20000
*HEAT TRANSFER, DELTMX = 10.
0.01, 0.09140000000000015, 1e-9, 0.09140000000000015
*CONTROLS, ANALYSIS=DISCONTINUOUS
*MODEL CHANGE, ADD = STRAIN FREE 
E_STEP_111
*SFILM
UP_68, F, 20, 0.0
*SRADIATE
UP_68, R, 20, 0.0
*SFILM
LEFT_103, F, 20, 0.0
*SRADIATE
LEFT_103, R, 20, 0.0
*OUTPUT, FIELD, VARIABLE = PRESELECT, NUMBER INTERVAL = 1
*OUTPUT, HISTORY, VARIABLE = PRESELECT
*NODE FILE, NSET=ALLNODES, FREQUENCY = 10
NT
*OUTPUT, FIELD
*NODE OUTPUT, NSET=ALLNODES
*END STEP


*STEP,NAME = STEP_112, INC= 20000
*HEAT TRANSFER, DELTMX = 10.
0.01, 0.09140000000000015, 1e-9, 0.09140000000000015
*CONTROLS, ANALYSIS=DISCONTINUOUS
*MODEL CHANGE, ADD = STRAIN FREE 
E_STEP_112
*SFILM
UP_69, F, 20, 0.0
*SRADIATE
UP_69, R, 20, 0.0
*SFILM
LEFT_102, F, 20, 0.0
*SRADIATE
LEFT_102, R, 20, 0.0
*OUTPUT, FIELD, VARIABLE = PRESELECT, NUMBER INTERVAL = 1
*OUTPUT, HISTORY, VARIABLE = PRESELECT
*NODE FILE, NSET=ALLNODES, FREQUENCY = 10
NT
*OUTPUT, FIELD
*NODE OUTPUT, NSET=ALLNODES
*END STEP


*STEP,NAME = STEP_113, INC= 20000
*HEAT TRANSFER, DELTMX = 10.
0.01, 0.09140000000000015, 1e-9, 0.09140000000000015
*CONTROLS, ANALYSIS=DISCONTINUOUS
*MODEL CHANGE, ADD = STRAIN FREE 
E_STEP_113
*SFILM
UP_70, F, 20, 0.0
*SRADIATE
UP_70, R, 20, 0.0
*SFILM
LEFT_101, F, 20, 0.0
*SRADIATE
LEFT_101, R, 20, 0.0
*OUTPUT, FIELD, VARIABLE = PRESELECT, NUMBER INTERVAL = 1
*OUTPUT, HISTORY, VARIABLE = PRESELECT
*NODE FILE, NSET=ALLNODES, FREQUENCY = 10
NT
*OUTPUT, FIELD
*NODE OUTPUT, NSET=ALLNODES
*END STEP


*STEP,NAME = STEP_114, INC= 20000
*HEAT TRANSFER, DELTMX = 10.
0.01, 0.09140000000000015, 1e-9, 0.09140000000000015
*CONTROLS, ANALYSIS=DISCONTINUOUS
*OUTPUT, FIELD, VARIABLE = PRESELECT, NUMBER INTERVAL = 1
*OUTPUT, HISTORY, VARIABLE = PRESELECT
*NODE FILE, NSET=ALLNODES, FREQUENCY = 10
NT
*OUTPUT, FIELD
*NODE OUTPUT, NSET=ALLNODES
*END STEP


*STEP,NAME = STEP_115, INC= 20000
*HEAT TRANSFER, DELTMX = 10.
0.01, 0.09140000000000015, 1e-9, 0.09140000000000015
*CONTROLS, ANALYSIS=DISCONTINUOUS
*MODEL CHANGE, ADD = STRAIN FREE 
E_STEP_115
*SFILM
UP_72, F, 20, 0.0
*SRADIATE
UP_72, R, 20, 0.0
*SFILM
RIGHT_113, F, 20, 0.0
*SRADIATE
RIGHT_113, R, 20, 0.0
*OUTPUT, FIELD, VARIABLE = PRESELECT, NUMBER INTERVAL = 1
*OUTPUT, HISTORY, VARIABLE = PRESELECT
*NODE FILE, NSET=ALLNODES, FREQUENCY = 10
NT
*OUTPUT, FIELD
*NODE OUTPUT, NSET=ALLNODES
*END STEP


*STEP,NAME = STEP_116, INC= 20000
*HEAT TRANSFER, DELTMX = 10.
0.01, 0.09140000000000015, 1e-9, 0.09140000000000015
*CONTROLS, ANALYSIS=DISCONTINUOUS
*MODEL CHANGE, ADD = STRAIN FREE 
E_STEP_116
*SFILM
UP_73, F, 20, 0.0
*SRADIATE
UP_73, R, 20, 0.0
*SFILM
RIGHT_112, F, 20, 0.0
*SRADIATE
RIGHT_112, R, 20, 0.0
*OUTPUT, FIELD, VARIABLE = PRESELECT, NUMBER INTERVAL = 1
*OUTPUT, HISTORY, VARIABLE = PRESELECT
*NODE FILE, NSET=ALLNODES, FREQUENCY = 10
NT
*OUTPUT, FIELD
*NODE OUTPUT, NSET=ALLNODES
*END STEP


*STEP,NAME = STEP_117, INC= 20000
*HEAT TRANSFER, DELTMX = 10.
0.01, 0.09140000000000015, 1e-9, 0.09140000000000015
*CONTROLS, ANALYSIS=DISCONTINUOUS
*MODEL CHANGE, ADD = STRAIN FREE 
E_STEP_117
*SFILM
UP_74, F, 20, 0.0
*SRADIATE
UP_74, R, 20, 0.0
*SFILM
RIGHT_111, F, 20, 0.0
*SRADIATE
RIGHT_111, R, 20, 0.0
*OUTPUT, FIELD, VARIABLE = PRESELECT, NUMBER INTERVAL = 1
*OUTPUT, HISTORY, VARIABLE = PRESELECT
*NODE FILE, NSET=ALLNODES, FREQUENCY = 10
NT
*OUTPUT, FIELD
*NODE OUTPUT, NSET=ALLNODES
*END STEP


*STEP,NAME = STEP_118, INC= 20000
*HEAT TRANSFER, DELTMX = 10.
0.01, 0.09140000000000015, 1e-9, 0.09140000000000015
*CONTROLS, ANALYSIS=DISCONTINUOUS
*MODEL CHANGE, ADD = STRAIN FREE 
E_STEP_118
*SFILM
UP_75, F, 20, 0.0
*SRADIATE
UP_75, R, 20, 0.0
*SFILM
RIGHT_110, F, 20, 0.0
*SRADIATE
RIGHT_110, R, 20, 0.0
*OUTPUT, FIELD, VARIABLE = PRESELECT, NUMBER INTERVAL = 1
*OUTPUT, HISTORY, VARIABLE = PRESELECT
*NODE FILE, NSET=ALLNODES, FREQUENCY = 10
NT
*OUTPUT, FIELD
*NODE OUTPUT, NSET=ALLNODES
*END STEP


*STEP,NAME = STEP_119, INC= 20000
*HEAT TRANSFER, DELTMX = 10.
0.01, 0.09140000000000015, 1e-9, 0.09140000000000015
*CONTROLS, ANALYSIS=DISCONTINUOUS
*MODEL CHANGE, ADD = STRAIN FREE 
E_STEP_119
*SFILM
UP_76, F, 20, 0.0
*SRADIATE
UP_76, R, 20, 0.0
*SFILM
RIGHT_109, F, 20, 0.0
*SRADIATE
RIGHT_109, R, 20, 0.0
*OUTPUT, FIELD, VARIABLE = PRESELECT, NUMBER INTERVAL = 1
*OUTPUT, HISTORY, VARIABLE = PRESELECT
*NODE FILE, NSET=ALLNODES, FREQUENCY = 10
NT
*OUTPUT, FIELD
*NODE OUTPUT, NSET=ALLNODES
*END STEP


*STEP,NAME = STEP_120, INC= 20000
*HEAT TRANSFER, DELTMX = 10.
0.01, 0.09140000000000015, 1e-9, 0.09140000000000015
*CONTROLS, ANALYSIS=DISCONTINUOUS
*MODEL CHANGE, ADD = STRAIN FREE 
E_STEP_120
*SFILM
UP_77, F, 20, 0.0
*SRADIATE
UP_77, R, 20, 0.0
*SFILM
RIGHT_108, F, 20, 0.0
*SRADIATE
RIGHT_108, R, 20, 0.0
*OUTPUT, FIELD, VARIABLE = PRESELECT, NUMBER INTERVAL = 1
*OUTPUT, HISTORY, VARIABLE = PRESELECT
*NODE FILE, NSET=ALLNODES, FREQUENCY = 10
NT
*OUTPUT, FIELD
*NODE OUTPUT, NSET=ALLNODES
*END STEP


*STEP,NAME = STEP_121, INC= 20000
*HEAT TRANSFER, DELTMX = 10.
0.01, 0.09140000000000015, 1e-9, 0.09140000000000015
*CONTROLS, ANALYSIS=DISCONTINUOUS
*OUTPUT, FIELD, VARIABLE = PRESELECT, NUMBER INTERVAL = 1
*OUTPUT, HISTORY, VARIABLE = PRESELECT
*NODE FILE, NSET=ALLNODES, FREQUENCY = 10
NT
*OUTPUT, FIELD
*NODE OUTPUT, NSET=ALLNODES
*END STEP


*STEP,NAME = STEP_122, INC= 20000
*HEAT TRANSFER, DELTMX = 10.
0.01, 0.09140000000000015, 1e-9, 0.09140000000000015
*CONTROLS, ANALYSIS=DISCONTINUOUS
*MODEL CHANGE, ADD = STRAIN FREE 
E_STEP_122
*SFILM
UP_79, F, 20, 0.0
*SRADIATE
UP_79, R, 20, 0.0
*SFILM
LEFT_120, F, 20, 0.0
*SRADIATE
LEFT_120, R, 20, 0.0
*OUTPUT, FIELD, VARIABLE = PRESELECT, NUMBER INTERVAL = 1
*OUTPUT, HISTORY, VARIABLE = PRESELECT
*NODE FILE, NSET=ALLNODES, FREQUENCY = 10
NT
*OUTPUT, FIELD
*NODE OUTPUT, NSET=ALLNODES
*END STEP


*STEP,NAME = STEP_123, INC= 20000
*HEAT TRANSFER, DELTMX = 10.
0.01, 0.09140000000000015, 1e-9, 0.09140000000000015
*CONTROLS, ANALYSIS=DISCONTINUOUS
*MODEL CHANGE, ADD = STRAIN FREE 
E_STEP_123
*SFILM
UP_80, F, 20, 0.0
*SRADIATE
UP_80, R, 20, 0.0
*SFILM
LEFT_119, F, 20, 0.0
*SRADIATE
LEFT_119, R, 20, 0.0
*OUTPUT, FIELD, VARIABLE = PRESELECT, NUMBER INTERVAL = 1
*OUTPUT, HISTORY, VARIABLE = PRESELECT
*NODE FILE, NSET=ALLNODES, FREQUENCY = 10
NT
*OUTPUT, FIELD
*NODE OUTPUT, NSET=ALLNODES
*END STEP


*STEP,NAME = STEP_124, INC= 20000
*HEAT TRANSFER, DELTMX = 10.
0.01, 0.09140000000000015, 1e-9, 0.09140000000000015
*CONTROLS, ANALYSIS=DISCONTINUOUS
*MODEL CHANGE, ADD = STRAIN FREE 
E_STEP_124
*SFILM
UP_81, F, 20, 0.0
*SRADIATE
UP_81, R, 20, 0.0
*SFILM
LEFT_118, F, 20, 0.0
*SRADIATE
LEFT_118, R, 20, 0.0
*OUTPUT, FIELD, VARIABLE = PRESELECT, NUMBER INTERVAL = 1
*OUTPUT, HISTORY, VARIABLE = PRESELECT
*NODE FILE, NSET=ALLNODES, FREQUENCY = 10
NT
*OUTPUT, FIELD
*NODE OUTPUT, NSET=ALLNODES
*END STEP


*STEP,NAME = STEP_125, INC= 20000
*HEAT TRANSFER, DELTMX = 10.
0.01, 0.09140000000000015, 1e-9, 0.09140000000000015
*CONTROLS, ANALYSIS=DISCONTINUOUS
*MODEL CHANGE, ADD = STRAIN FREE 
E_STEP_125
*SFILM
UP_82, F, 20, 0.0
*SRADIATE
UP_82, R, 20, 0.0
*SFILM
LEFT_117, F, 20, 0.0
*SRADIATE
LEFT_117, R, 20, 0.0
*OUTPUT, FIELD, VARIABLE = PRESELECT, NUMBER INTERVAL = 1
*OUTPUT, HISTORY, VARIABLE = PRESELECT
*NODE FILE, NSET=ALLNODES, FREQUENCY = 10
NT
*OUTPUT, FIELD
*NODE OUTPUT, NSET=ALLNODES
*END STEP


*STEP,NAME = STEP_126, INC= 20000
*HEAT TRANSFER, DELTMX = 10.
0.01, 0.09140000000000015, 1e-9, 0.09140000000000015
*CONTROLS, ANALYSIS=DISCONTINUOUS
*MODEL CHANGE, ADD = STRAIN FREE 
E_STEP_126
*SFILM
UP_83, F, 20, 0.0
*SRADIATE
UP_83, R, 20, 0.0
*SFILM
LEFT_116, F, 20, 0.0
*SRADIATE
LEFT_116, R, 20, 0.0
*OUTPUT, FIELD, VARIABLE = PRESELECT, NUMBER INTERVAL = 1
*OUTPUT, HISTORY, VARIABLE = PRESELECT
*NODE FILE, NSET=ALLNODES, FREQUENCY = 10
NT
*OUTPUT, FIELD
*NODE OUTPUT, NSET=ALLNODES
*END STEP


*STEP,NAME = STEP_127, INC= 20000
*HEAT TRANSFER, DELTMX = 10.
0.01, 0.09140000000000015, 1e-9, 0.09140000000000015
*CONTROLS, ANALYSIS=DISCONTINUOUS
*MODEL CHANGE, ADD = STRAIN FREE 
E_STEP_127
*SFILM
UP_84, F, 20, 0.0
*SRADIATE
UP_84, R, 20, 0.0
*SFILM
LEFT_115, F, 20, 0.0
*SRADIATE
LEFT_115, R, 20, 0.0
*OUTPUT, FIELD, VARIABLE = PRESELECT, NUMBER INTERVAL = 1
*OUTPUT, HISTORY, VARIABLE = PRESELECT
*NODE FILE, NSET=ALLNODES, FREQUENCY = 10
NT
*OUTPUT, FIELD
*NODE OUTPUT, NSET=ALLNODES
*END STEP


*STEP,NAME = STEP_128, INC= 20000
*HEAT TRANSFER, DELTMX = 10.
0.01, 0.09140000000000015, 1e-9, 0.09140000000000015
*CONTROLS, ANALYSIS=DISCONTINUOUS
*OUTPUT, FIELD, VARIABLE = PRESELECT, NUMBER INTERVAL = 1
*OUTPUT, HISTORY, VARIABLE = PRESELECT
*NODE FILE, NSET=ALLNODES, FREQUENCY = 10
NT
*OUTPUT, FIELD
*NODE OUTPUT, NSET=ALLNODES
*END STEP


*STEP,NAME = STEP_129, INC= 20000
*HEAT TRANSFER, DELTMX = 10.
0.01, 15.015496666666671, 1e-9, 15.015496666666671
*CONTROLS, ANALYSIS=DISCONTINUOUS
*OUTPUT, FIELD, VARIABLE = PRESELECT, NUMBER INTERVAL = 1
*OUTPUT, HISTORY, VARIABLE = PRESELECT
*NODE FILE, NSET=ALLNODES, FREQUENCY = 10
NT
*OUTPUT, FIELD
*NODE OUTPUT, NSET=ALLNODES
*END STEP

** SERVICE LOADING OF THE PART **
*STEP,NAME = SERVICE, INC= 20000
*HEAT TRANSFER, DELTMX = 10.
0.1, 100, 1E-9,10000
*SFILM, OP = NEW
FREE_SURFACE, F, 20,67
*RESTART, WRITE, FREQUENCY = 0
*OUTPUT, FIELD, VARIABLE = PRESELECT, NUMBER INTERVAL = 1 
*OUTPUT, HISTORY, VARIABLE = PRESELECT
*NODE FILE, NSET=ALLNODES, FREQUENCY = 10
NT
*OUTPUT, FIELD
*NODE OUTPUT, NSET=ALLNODES
*END STEP
	