*NODE,NSET = ALLNODES
1	,2.7554552980815444e-20	,0.00015	,0.0 
2	,1.8369701987210296e-20	,9.999999999999999e-05	,0.0 
3	,9.184850993605145e-21	,4.999999999999998e-05	,0.0 
4	,0.0	,0.0	,0.0 
5	,-9.184850993605152e-21	,-5.000000000000002e-05	,0.0 
6	,-1.83697019872103e-20	,-0.00010000000000000002	,0.0 
7	,-2.7554552980815444e-20	,-0.00015	,0.0 
8	,2.7554552980815444e-20	,0.00015	,5e-05 
9	,9.184850993605145e-21	,4.999999999999998e-05	,5e-05 
10	,-9.184850993605152e-21	,-5.000000000000002e-05	,5e-05 
11	,-2.7554552980815444e-20	,-0.00015	,5e-05 
12	,2.7554552980815444e-20	,0.00015	,0.0001 
13	,1.8369701987210296e-20	,9.999999999999999e-05	,0.0001 
14	,9.184850993605145e-21	,4.999999999999998e-05	,0.0001 
15	,0.0	,0.0	,0.0001 
16	,-9.184850993605152e-21	,-5.000000000000002e-05	,0.0001 
17	,-1.83697019872103e-20	,-0.00010000000000000002	,0.0001 
18	,-2.7554552980815444e-20	,-0.00015	,0.0001 
19	,2.7554552980815444e-20	,0.00015	,0.00015 
20	,9.184850993605145e-21	,4.999999999999998e-05	,0.00015 
** ... 1722 like lines cut
*ELEMENT,ELSET = ALLELEMENTS, TYPE = C3D20T
1,12,14,3,1,52,54,43,41,13,9,2,8,53,49,42,48,85,86,82,81
2,14,16,5,3,54,56,45,43,15,10,4,9,55,50,44,49,86,87,83,82
3,16,18,7,5,56,58,47,45,17,11,6,10,57,51,46,50,87,88,84,83
4,23,25,14,12,63,65,54,52,24,20,13,19,64,60,53,59,89,90,86,85
5,25,27,16,14,65,67,56,54,26,21,15,20,66,61,55,60,90,91,87,86
6,27,29,18,16,67,69,58,56,28,22,17,21,68,62,57,61,91,92,88,87
7,34,36,25,23,74,76,65,63,35,31,24,30,75,71,64,70,93,94,90,89
8,36,38,27,25,76,78,67,65,37,32,26,31,77,72,66,71,94,95,91,90
9,38,40,29,27,78,80,69,67,39,33,28,32,79,73,68,72,95,96,92,91
10,52,54,43,41,108,110,99,97,53,49,42,48,109,105,98,104,141,142,138,137
11,54,56,45,43,110,112,101,99,55,50,44,49,111,106,100,105,142,143,139,138
12,56,58,47,45,112,114,103,101,57,51,46,50,113,107,102,106,143,144,140,139
13,63,65,54,52,119,121,110,108,64,60,53,59,120,116,109,115,145,146,142,141
14,65,67,56,54,121,123,112,110,66,61,55,60,122,117,111,116,146,147,143,142
15,67,69,58,56,123,125,114,112,68,62,57,61,124,118,113,117,147,148,144,143
16,74,76,65,63,130,132,121,119,75,71,64,70,131,127,120,126,149,150,146,145
17,76,78,67,65,132,134,123,121,77,72,66,71,133,128,122,127,150,151,147,146
18,78,80,69,67,134,136,125,123,79,73,68,72,135,129,124,128,151,152,148,147
19,108,110,99,97,164,166,155,153,109,105,98,104,165,161,154,160,197,198,194,193
20,110,112,101,99,166,168,157,155,111,106,100,105,167,162,156,161,198,199,195,194
** ... 268 like lines cut
*Material, name=ABSP400
*Conductivity
 0.3,
*Density
1050.,
*Elastic, moduli=LONG TERM
2340e6., 0.4
*Expansion
 1e-05,
*Specific Heat
2020.,
**Viscoelastic, time=PRONY
** 0.01,  0., 0.1
** 0.35,  0.,  1.
** 0.24,  0.,  7.
**0.21,  1.,100.
**Trs
**108.,  8.86, 101.6
*SOLID SECTION, ELSET=ALLELEMENTS, MATERIAL = ABSP400
*SURFACE, NAME = BUILD_SURFACE, TYPE=ELEMENT
 1, S5
 2, S5
 3, S5
 10, S5
 11, S5
 12, S5
 19, S5
 20, S5
 21, S5
 28, S5
 29, S5
 30, S5
 37, S5
 38, S5
 39, S5
 46, S5
 47, S5
 48, S5
 55, S5
 56, S5
** ... 28 like lines cut
**ELEMENTS BY DEPOSISTION STEP
*ELSET, ELSET = E_STEP_1
1,
2,
3,
4,
5,
6,
7,
8,
9
*ELSET, ELSET = E_STEP_2
10,
11,
12,
13,
14,
15,
16,
17,
18
*ELSET, ELSET = E_STEP_3
19,
20,
21,
22,
23,
24,
25,
26,
27
*ELSET, ELSET = E_STEP_4
28,
29,
30,
31,
32,
33,
34,
35,
36
*ELSET, ELSET = E_STEP_6
37,
38,
39,
40,
41,
42,
43,
44,
45
*ELSET, ELSET = E_STEP_7
46,
47,
48,
49,
50,
51,
52,
53,
54
*ELSET, ELSET = E_STEP_8
55,
56,
57,
58,
59,
60,
61,
62,
63
*ELSET, ELSET = E_STEP_9
64,
65,
66,
67,
68,
69,
70,
71,
72
*ELSET, ELSET = E_STEP_11
73,
74,
75,
76,
77,
78,
79,
80,
81
*ELSET, ELSET = E_STEP_12
82,
83,
84,
85,
86,
87,
88,
89,
90
*ELSET, ELSET = E_STEP_13
91,
92,
93,
94,
95,
96,
97,
98,
99
*ELSET, ELSET = E_STEP_14
100,
101,
102,
103,
104,
105,
106,
107,
108
*ELSET, ELSET = E_STEP_16
109,
110,
111,
112,
113,
114,
115,
116,
117
*ELSET, ELSET = E_STEP_17
118,
119,
120,
121,
122,
123,
124,
125,
126
*ELSET, ELSET = E_STEP_18
127,
128,
129,
130,
131,
132,
133,
134,
135
*ELSET, ELSET = E_STEP_19
136,
137,
138,
139,
140,
141,
142,
143,
144
*ELSET, ELSET = E_STEP_21
145,
146,
147,
148,
149,
150,
151,
152,
153
*ELSET, ELSET = E_STEP_22
154,
155,
156,
157,
158,
159,
160,
161,
162
*ELSET, ELSET = E_STEP_23
163,
164,
165,
166,
167,
168,
169,
170,
171
*ELSET, ELSET = E_STEP_24
172,
173,
174,
175,
176,
177,
178,
179,
180
*ELSET, ELSET = E_STEP_26
181,
182,
183,
184,
185,
186,
187,
188,
189
*ELSET, ELSET = E_STEP_27
190,
191,
192,
193,
194,
195,
196,
197,
198
*ELSET, ELSET = E_STEP_28
199,
200,
201,
202,
203,
204,
205,
206,
207
*ELSET, ELSET = E_STEP_29
208,
209,
210,
211,
212,
213,
214,
215,
216
*ELSET, ELSET = E_STEP_31
217,
218,
219,
220,
221,
222,
223,
224,
225
*ELSET, ELSET = E_STEP_32
226,
227,
228,
229,
230,
231,
232,
233,
234
*ELSET, ELSET = E_STEP_33
235,
236,
237,
238,
239,
240,
241,
242,
243
*ELSET, ELSET = E_STEP_34
244,
245,
246,
247,
248,
249,
250,
251,
252
*ELSET, ELSET = E_STEP_36
253,
254,
255,
256,
257,
258,
259,
260,
261
*ELSET, ELSET = E_STEP_37
262,
263,
264,
265,
266,
267,
268,
269,
270
*ELSET, ELSET = E_STEP_38
271,
272,
273,
274,
275,
276,
277,
278,
279
*ELSET, ELSET = E_STEP_39
280,
281,
282,
283,
284,
285,
286,
287,
288
*NSET, NSET = BUILD_PLATE
1,
2,
3,
4,
5,
6,
7,
41,
42,
43,
44,
45,
46,
47,
81,
82,
83,
84,
97,
98,
** ... 157 like lines cut

*SURFACE, NAME = UP_1, TYPE=ELEMENT
7, S3
8, S3
9, S3

*SURFACE, NAME = DOWN_1, TYPE=ELEMENT
1, S5
2, S5
3, S5

*SURFACE, NAME = LEFT_1, TYPE=ELEMENT
1, S6
4, S6
7, S6

*SURFACE, NAME = RIGHT_1, TYPE=ELEMENT
3, S4
6, S4
9, S4

*SURFACE, NAME = UP_2, TYPE=ELEMENT
16, S3
17, S3
18, S3

*SURFACE, NAME = DOWN_2, TYPE=ELEMENT
10, S5
11, S5
12, S5

*SURFACE, NAME = LEFT_2, TYPE=ELEMENT
10, S6
13, S6
16, S6

*SURFACE, NAME = RIGHT_2, TYPE=ELEMENT
12, S4
15, S4
18, S4

*SURFACE, NAME = UP_3, TYPE=ELEMENT
25, S3
26, S3
27, S3

*SURFACE, NAME = DOWN_3, TYPE=ELEMENT
19, S5
20, S5
21, S5

*SURFACE, NAME = LEFT_3, TYPE=ELEMENT
19, S6
22, S6
25, S6

*SURFACE, NAME = RIGHT_3, TYPE=ELEMENT
21, S4
24, S4
27, S4

*SURFACE, NAME = UP_4, TYPE=ELEMENT
34, S3
35, S3
36, S3

*SURFACE, NAME = DOWN_4, TYPE=ELEMENT
28, S5
29, S5
30, S5

*SURFACE, NAME = LEFT_4, TYPE=ELEMENT
28, S6
31, S6
34, S6

*SURFACE, NAME = RIGHT_4, TYPE=ELEMENT
30, S4
33, S4
36, S4

*SURFACE, NAME = UP_6, TYPE=ELEMENT
43, S3
44, S3
45, S3

*SURFACE, NAME = DOWN_6, TYPE=ELEMENT
37, S5
38, S5
39, S5

*SURFACE, NAME = RIGHT_6, TYPE=ELEMENT
39, S4
42, S4
45, S4

*SURFACE, NAME = UP_7, TYPE=ELEMENT
52, S3
53, S3
54, S3

*SURFACE, NAME = DOWN_7, TYPE=ELEMENT
46, S5
47, S5
48, S5

*SURFACE, NAME = RIGHT_7, TYPE=ELEMENT
48, S4
51, S4
54, S4

*SURFACE, NAME = UP_8, TYPE=ELEMENT
61, S3
62, S3
63, S3

*SURFACE, NAME = DOWN_8, TYPE=ELEMENT
55, S5
56, S5
57, S5

*SURFACE, NAME = RIGHT_8, TYPE=ELEMENT
57, S4
60, S4
63, S4

*SURFACE, NAME = UP_9, TYPE=ELEMENT
70, S3
71, S3
72, S3

*SURFACE, NAME = DOWN_9, TYPE=ELEMENT
64, S5
65, S5
66, S5

*SURFACE, NAME = RIGHT_9, TYPE=ELEMENT
66, S4
69, S4
72, S4

*SURFACE, NAME = UP_11, TYPE=ELEMENT
79, S3
80, S3
81, S3

*SURFACE, NAME = DOWN_11, TYPE=ELEMENT
73, S5
74, S5
75, S5

*SURFACE, NAME = LEFT_11, TYPE=ELEMENT
73, S6
76, S6
79, S6

*SURFACE, NAME = UP_12, TYPE=ELEMENT
88, S3
89, S3
90, S3

*SURFACE, NAME = DOWN_12, TYPE=ELEMENT
82, S5
83, S5
84, S5

*SURFACE, NAME = LEFT_12, TYPE=ELEMENT
82, S6
85, S6
88, S6

*SURFACE, NAME = UP_13, TYPE=ELEMENT
97, S3
98, S3
99, S3

*SURFACE, NAME = DOWN_13, TYPE=ELEMENT
91, S5
92, S5
93, S5

*SURFACE, NAME = LEFT_13, TYPE=ELEMENT
91, S6
94, S6
97, S6

*SURFACE, NAME = UP_14, TYPE=ELEMENT
106, S3
107, S3
108, S3

*SURFACE, NAME = DOWN_14, TYPE=ELEMENT
100, S5
101, S5
102, S5

*SURFACE, NAME = LEFT_14, TYPE=ELEMENT
100, S6
103, S6
106, S6

*SURFACE, NAME = UP_16, TYPE=ELEMENT
115, S3
116, S3
117, S3

*SURFACE, NAME = DOWN_16, TYPE=ELEMENT
109, S5
110, S5
111, S5

*SURFACE, NAME = RIGHT_16, TYPE=ELEMENT
111, S4
114, S4
117, S4

*SURFACE, NAME = UP_17, TYPE=ELEMENT
124, S3
125, S3
126, S3

*SURFACE, NAME = DOWN_17, TYPE=ELEMENT
118, S5
119, S5
120, S5

*SURFACE, NAME = RIGHT_17, TYPE=ELEMENT
120, S4
123, S4
126, S4

*SURFACE, NAME = UP_18, TYPE=ELEMENT
133, S3
134, S3
135, S3

*SURFACE, NAME = DOWN_18, TYPE=ELEMENT
127, S5
128, S5
129, S5

*SURFACE, NAME = RIGHT_18, TYPE=ELEMENT
129, S4
132, S4
135, S4

*SURFACE, NAME = UP_19, TYPE=ELEMENT
142, S3
143, S3
144, S3

*SURFACE, NAME = DOWN_19, TYPE=ELEMENT
136, S5
137, S5
138, S5

*SURFACE, NAME = RIGHT_19, TYPE=ELEMENT
138, S4
141, S4
144, S4

*SURFACE, NAME = UP_21, TYPE=ELEMENT
151, S3
152, S3
153, S3

*SURFACE, NAME = DOWN_21, TYPE=ELEMENT
145, S5
146, S5
147, S5

*SURFACE, NAME = LEFT_21, TYPE=ELEMENT
145, S6
148, S6
151, S6

*SURFACE, NAME = RIGHT_21, TYPE=ELEMENT
147, S4
150, S4
153, S4

*SURFACE, NAME = UP_22, TYPE=ELEMENT
160, S3
161, S3
162, S3

*SURFACE, NAME = DOWN_22, TYPE=ELEMENT
154, S5
155, S5
156, S5

*SURFACE, NAME = LEFT_22, TYPE=ELEMENT
154, S6
157, S6
160, S6

*SURFACE, NAME = RIGHT_22, TYPE=ELEMENT
156, S4
159, S4
162, S4

*SURFACE, NAME = UP_23, TYPE=ELEMENT
169, S3
170, S3
171, S3

*SURFACE, NAME = DOWN_23, TYPE=ELEMENT
163, S5
164, S5
165, S5

*SURFACE, NAME = LEFT_23, TYPE=ELEMENT
163, S6
166, S6
169, S6

*SURFACE, NAME = RIGHT_23, TYPE=ELEMENT
165, S4
168, S4
171, S4

*SURFACE, NAME = UP_24, TYPE=ELEMENT
178, S3
179, S3
180, S3

*SURFACE, NAME = DOWN_24, TYPE=ELEMENT
172, S5
173, S5
174, S5

*SURFACE, NAME = LEFT_24, TYPE=ELEMENT
172, S6
175, S6
178, S6

*SURFACE, NAME = RIGHT_24, TYPE=ELEMENT
174, S4
177, S4
180, S4

*SURFACE, NAME = UP_26, TYPE=ELEMENT
187, S3
188, S3
189, S3

*SURFACE, NAME = DOWN_26, TYPE=ELEMENT
181, S5
182, S5
183, S5

*SURFACE, NAME = LEFT_26, TYPE=ELEMENT
181, S6
184, S6
187, S6

*SURFACE, NAME = UP_27, TYPE=ELEMENT
196, S3
197, S3
198, S3

*SURFACE, NAME = DOWN_27, TYPE=ELEMENT
190, S5
191, S5
192, S5

*SURFACE, NAME = LEFT_27, TYPE=ELEMENT
190, S6
193, S6
196, S6

*SURFACE, NAME = UP_28, TYPE=ELEMENT
205, S3
206, S3
207, S3

*SURFACE, NAME = DOWN_28, TYPE=ELEMENT
199, S5
200, S5
201, S5

*SURFACE, NAME = LEFT_28, TYPE=ELEMENT
199, S6
202, S6
205, S6

*SURFACE, NAME = UP_29, TYPE=ELEMENT
214, S3
215, S3
216, S3

*SURFACE, NAME = DOWN_29, TYPE=ELEMENT
208, S5
209, S5
210, S5

*SURFACE, NAME = LEFT_29, TYPE=ELEMENT
208, S6
211, S6
214, S6

*SURFACE, NAME = UP_31, TYPE=ELEMENT
223, S3
224, S3
225, S3

*SURFACE, NAME = DOWN_31, TYPE=ELEMENT
217, S5
218, S5
219, S5

*SURFACE, NAME = RIGHT_31, TYPE=ELEMENT
219, S4
222, S4
225, S4

*SURFACE, NAME = UP_32, TYPE=ELEMENT
232, S3
233, S3
234, S3

*SURFACE, NAME = DOWN_32, TYPE=ELEMENT
226, S5
227, S5
228, S5

*SURFACE, NAME = RIGHT_32, TYPE=ELEMENT
228, S4
231, S4
234, S4

*SURFACE, NAME = UP_33, TYPE=ELEMENT
241, S3
242, S3
243, S3

*SURFACE, NAME = DOWN_33, TYPE=ELEMENT
235, S5
236, S5
237, S5

*SURFACE, NAME = RIGHT_33, TYPE=ELEMENT
237, S4
240, S4
243, S4

*SURFACE, NAME = UP_34, TYPE=ELEMENT
250, S3
251, S3
252, S3

*SURFACE, NAME = DOWN_34, TYPE=ELEMENT
244, S5
245, S5
246, S5

*SURFACE, NAME = RIGHT_34, TYPE=ELEMENT
246, S4
249, S4
252, S4

*SURFACE, NAME = UP_36, TYPE=ELEMENT
259, S3
260, S3
261, S3

*SURFACE, NAME = DOWN_36, TYPE=ELEMENT
253, S5
254, S5
255, S5

*SURFACE, NAME = LEFT_36, TYPE=ELEMENT
253, S6
256, S6
259, S6

*SURFACE, NAME = UP_37, TYPE=ELEMENT
268, S3
269, S3
270, S3

*SURFACE, NAME = DOWN_37, TYPE=ELEMENT
262, S5
263, S5
264, S5

*SURFACE, NAME = LEFT_37, TYPE=ELEMENT
262, S6
265, S6
268, S6

*SURFACE, NAME = UP_38, TYPE=ELEMENT
277, S3
278, S3
279, S3

*SURFACE, NAME = DOWN_38, TYPE=ELEMENT
271, S5
272, S5
273, S5

*SURFACE, NAME = LEFT_38, TYPE=ELEMENT
271, S6
274, S6
277, S6

*SURFACE, NAME = UP_39, TYPE=ELEMENT
286, S3
287, S3
288, S3

*SURFACE, NAME = DOWN_39, TYPE=ELEMENT
280, S5
281, S5
282, S5

*SURFACE, NAME = LEFT_39, TYPE=ELEMENT
280, S6
283, S6
286, S6

*INITIAL CONDITIONS, TYPE = TEMPERATURE
ALLNODES, 200.
**INITIAL CONDITIONS, TYPE = TEMPERATURE
**BUILD_PLATE, 60.
*NSET, NSET = N2
2
*SURFACE, NAME = FREE_SURFACE, TYPE = ELEMENT
ALLELEMENTS,
*STEP,NAME = STEP_0, INC= 20000, NLGEOM = YES
*COUPLED TEMPERATURE-DISPLACEMENT, DELTMX = 10., CETOL= 1e-3
0, 3.0, 1e-9,3.0
**SOLUTION TECHNIQUE, TYPE = SEPARATED
*BOUNDARY, TYPE = DISPLACEMENT
BUILD_PLATE, 1, 1 
BUILD_PLATE, 2, 2 
BUILD_PLATE, 3, 3 
**BUILD_PLATE,11,11, 210
*MODEL CHANGE, REMOVE
E_STEP_1,
E_STEP_2,
E_STEP_3,
E_STEP_4,
E_STEP_6,
E_STEP_7,
E_STEP_8,
E_STEP_9,
E_STEP_11,
E_STEP_12,
E_STEP_13,
E_STEP_14,
E_STEP_16,
E_STEP_17,
E_STEP_18,
E_STEP_19,
E_STEP_21,
E_STEP_22,
E_STEP_23,
E_STEP_24,
** ... 12 like lines cut
*SFILM
UP_1, F, 20, 67
DOWN_1, F, 20, 67
LEFT_1, F, 20, 67
RIGHT_1, F, 20, 67
UP_2, F, 20, 67
DOWN_2, F, 20, 67
LEFT_2, F, 20, 67
RIGHT_2, F, 20, 67
UP_3, F, 20, 67
DOWN_3, F, 20, 67
LEFT_3, F, 20, 67
RIGHT_3, F, 20, 67
UP_4, F, 20, 67
DOWN_4, F, 20, 67
LEFT_4, F, 20, 67
RIGHT_4, F, 20, 67
UP_6, F, 20, 67
DOWN_6, F, 20, 67
RIGHT_6, F, 20, 67
UP_7, F, 20, 67
DOWN_7, F, 20, 67
RIGHT_7, F, 20, 67
UP_8, F, 20, 67
DOWN_8, F, 20, 67
RIGHT_8, F, 20, 67
UP_9, F, 20, 67
DOWN_9, F, 20, 67
RIGHT_9, F, 20, 67
UP_11, F, 20, 67
DOWN_11, F, 20, 67
LEFT_11, F, 20, 67
UP_12, F, 20, 67
DOWN_12, F, 20, 67
LEFT_12, F, 20, 67
UP_13, F, 20, 67
DOWN_13, F, 20, 67
LEFT_13, F, 20, 67
UP_14, F, 20, 67
DOWN_14, F, 20, 67
LEFT_14, F, 20, 67
UP_16, F, 20, 67
DOWN_16, F, 20, 67
RIGHT_16, F, 20, 67
UP_17, F, 20, 67
DOWN_17, F, 20, 67
RIGHT_17, F, 20, 67
UP_18, F, 20, 67
DOWN_18, F, 20, 67
RIGHT_18, F, 20, 67
UP_19, F, 20, 67
DOWN_19, F, 20, 67
RIGHT_19, F, 20, 67
UP_21, F, 20, 67
DOWN_21, F, 20, 67
LEFT_21, F, 20, 67
RIGHT_21, F, 20, 67
UP_22, F, 20, 67
DOWN_22, F, 20, 67
LEFT_22, F, 20, 67
RIGHT_22, F, 20, 67
UP_23, F, 20, 67
DOWN_23, F, 20, 67
LEFT_23, F, 20, 67
RIGHT_23, F, 20, 67
UP_24, F, 20, 67
DOWN_24, F, 20, 67
LEFT_24, F, 20, 67
RIGHT_24, F, 20, 67
UP_26, F, 20, 67
DOWN_26, F, 20, 67
LEFT_26, F, 20, 67
UP_27, F, 20, 67
DOWN_27, F, 20, 67
LEFT_27, F, 20, 67
UP_28, F, 20, 67
DOWN_28, F, 20, 67
LEFT_28, F, 20, 67
UP_29, F, 20, 67
DOWN_29, F, 20, 67
LEFT_29, F, 20, 67
UP_31, F, 20, 67
DOWN_31, F, 20, 67
RIGHT_31, F, 20, 67
UP_32, F, 20, 67
DOWN_32, F, 20, 67
RIGHT_32, F, 20, 67
UP_33, F, 20, 67
DOWN_33, F, 20, 67
RIGHT_33, F, 20, 67
UP_34, F, 20, 67
DOWN_34, F, 20, 67
RIGHT_34, F, 20, 67
UP_36, F, 20, 67
DOWN_36, F, 20, 67
LEFT_36, F, 20, 67
UP_37, F, 20, 67
DOWN_37, F, 20, 67
LEFT_37, F, 20, 67
UP_38, F, 20, 67
DOWN_38, F, 20, 67
LEFT_38, F, 20, 67
UP_39, F, 20, 67
DOWN_39, F, 20, 67
LEFT_39, F, 20, 67
*SFILM
BUILD_SURFACE, F, 210, 210
*RESTART, WRITE, FREQUENCY = 0
*OUTPUT, FIELD, VARIABLE = PRESELECT
*OUTPUT, HISTORY, VARIABLE = PRESELECT
*NODE OUTPUT, NSET = N2
U
*END STEP

*STEP,NAME = STEP_1, INC= 20000, NLGEOM = YES
*COUPLED TEMPERATURE-DISPLACEMENT,DELTMX = 10., CETOL= 1e-3
0, 0.2999999999999998, 1e-9,0.2999999999999998
**SOLUTION TECHNIQUE, TYPE = SEPARATED
*BOUNDARY, TYPE = DISPLACEMENT
BUILD_PLATE, 1, 1 
BUILD_PLATE, 2, 2 
BUILD_PLATE, 3, 3 
*MODEL CHANGE, ADD = STRAIN FREE 
E_STEP_1
*RESTART, WRITE, FREQUENCY = 0
*OUTPUT, FIELD, VARIABLE = PRESELECT
*OUTPUT, HISTORY, VARIABLE = PRESELECT
*NODE OUTPUT, NSET = N2
U
*END STEP

*STEP,NAME = STEP_2, INC= 20000, NLGEOM = YES
*COUPLED TEMPERATURE-DISPLACEMENT,DELTMX = 10., CETOL= 1e-3
0, 0.30000000000000027, 1e-9,0.30000000000000027
**SOLUTION TECHNIQUE, TYPE = SEPARATED
*BOUNDARY, TYPE = DISPLACEMENT
BUILD_PLATE, 1, 1 
BUILD_PLATE, 2, 2 
BUILD_PLATE, 3, 3 
*MODEL CHANGE, ADD = STRAIN FREE 
E_STEP_2
*RESTART, WRITE, FREQUENCY = 0
*OUTPUT, FIELD, VARIABLE = PRESELECT
*OUTPUT, HISTORY, VARIABLE = PRESELECT
*NODE OUTPUT, NSET = N2
U
*END STEP

*STEP,NAME = STEP_3, INC= 20000, NLGEOM = YES
*COUPLED TEMPERATURE-DISPLACEMENT,DELTMX = 10., CETOL= 1e-3
0, 0.30000000000000027, 1e-9,0.30000000000000027
**SOLUTION TECHNIQUE, TYPE = SEPARATED
*BOUNDARY, TYPE = DISPLACEMENT
BUILD_PLATE, 1, 1 
BUILD_PLATE, 2, 2 
BUILD_PLATE, 3, 3 
*MODEL CHANGE, ADD = STRAIN FREE 
E_STEP_3
*RESTART, WRITE, FREQUENCY = 0
*OUTPUT, FIELD, VARIABLE = PRESELECT
*OUTPUT, HISTORY, VARIABLE = PRESELECT
*NODE OUTPUT, NSET = N2
U
*END STEP

*STEP,NAME = STEP_4, INC= 20000, NLGEOM = YES
*COUPLED TEMPERATURE-DISPLACEMENT,DELTMX = 10., CETOL= 1e-3
0, 0.2999999999999998, 1e-9,0.2999999999999998
**SOLUTION TECHNIQUE, TYPE = SEPARATED
*BOUNDARY, TYPE = DISPLACEMENT
BUILD_PLATE, 1, 1 
BUILD_PLATE, 2, 2 
BUILD_PLATE, 3, 3 
*MODEL CHANGE, ADD = STRAIN FREE 
E_STEP_4
*RESTART, WRITE, FREQUENCY = 0
*OUTPUT, FIELD, VARIABLE = PRESELECT
*OUTPUT, HISTORY, VARIABLE = PRESELECT
*NODE OUTPUT, NSET = N2
U
*END STEP

*STEP,NAME = STEP_5, INC= 20000, NLGEOM = YES
*COUPLED TEMPERATURE-DISPLACEMENT,DELTMX = 10., CETOL= 1e-3
0, 0.17999999999999972, 1e-9,0.17999999999999972
**SOLUTION TECHNIQUE, TYPE = SEPARATED
*BOUNDARY, TYPE = DISPLACEMENT
BUILD_PLATE, 1, 1 
BUILD_PLATE, 2, 2 
BUILD_PLATE, 3, 3 
*RESTART, WRITE, FREQUENCY = 0
*OUTPUT, FIELD, VARIABLE = PRESELECT
*OUTPUT, HISTORY, VARIABLE = PRESELECT
*NODE OUTPUT, NSET = N2
U
*END STEP

*STEP,NAME = STEP_6, INC= 20000, NLGEOM = YES
*COUPLED TEMPERATURE-DISPLACEMENT,DELTMX = 10., CETOL= 1e-3
0, 0.2999999999999998, 1e-9,0.2999999999999998
**SOLUTION TECHNIQUE, TYPE = SEPARATED
*BOUNDARY, TYPE = DISPLACEMENT
BUILD_PLATE, 1, 1 
BUILD_PLATE, 2, 2 
BUILD_PLATE, 3, 3 
*MODEL CHANGE, ADD = STRAIN FREE 
E_STEP_6
*SFILM
LEFT_4, F, 20, 0.0
*SFILM
LEFT_3, F, 20, 0.0
*RESTART, WRITE, FREQUENCY = 0
*OUTPUT, FIELD, VARIABLE = PRESELECT
*OUTPUT, HISTORY, VARIABLE = PRESELECT
*NODE OUTPUT, NSET = N2
U
*END STEP

*STEP,NAME = STEP_7, INC= 20000, NLGEOM = YES
*COUPLED TEMPERATURE-DISPLACEMENT,DELTMX = 10., CETOL= 1e-3
0, 0.3000000000000007, 1e-9,0.3000000000000007
**SOLUTION TECHNIQUE, TYPE = SEPARATED
*BOUNDARY, TYPE = DISPLACEMENT
BUILD_PLATE, 1, 1 
BUILD_PLATE, 2, 2 
BUILD_PLATE, 3, 3 
*MODEL CHANGE, ADD = STRAIN FREE 
E_STEP_7
*SFILM
LEFT_2, F, 20, 0.0
*SFILM
LEFT_3, F, 20, 0.0
*RESTART, WRITE, FREQUENCY = 0
*OUTPUT, FIELD, VARIABLE = PRESELECT
*OUTPUT, HISTORY, VARIABLE = PRESELECT
*NODE OUTPUT, NSET = N2
U
*END STEP

*STEP,NAME = STEP_8, INC= 20000, NLGEOM = YES
*COUPLED TEMPERATURE-DISPLACEMENT,DELTMX = 10., CETOL= 1e-3
0, 0.2999999999999998, 1e-9,0.2999999999999998
**SOLUTION TECHNIQUE, TYPE = SEPARATED
*BOUNDARY, TYPE = DISPLACEMENT
BUILD_PLATE, 1, 1 
BUILD_PLATE, 2, 2 
BUILD_PLATE, 3, 3 
*MODEL CHANGE, ADD = STRAIN FREE 
E_STEP_8
*SFILM
LEFT_1, F, 20, 0.0
*SFILM
LEFT_2, F, 20, 0.0
*RESTART, WRITE, FREQUENCY = 0
*OUTPUT, FIELD, VARIABLE = PRESELECT
*OUTPUT, HISTORY, VARIABLE = PRESELECT
*NODE OUTPUT, NSET = N2
U
*END STEP

*STEP,NAME = STEP_9, INC= 20000, NLGEOM = YES
*COUPLED TEMPERATURE-DISPLACEMENT,DELTMX = 10., CETOL= 1e-3
0, 0.2999999999999998, 1e-9,0.2999999999999998
**SOLUTION TECHNIQUE, TYPE = SEPARATED
*BOUNDARY, TYPE = DISPLACEMENT
BUILD_PLATE, 1, 1 
BUILD_PLATE, 2, 2 
BUILD_PLATE, 3, 3 
*MODEL CHANGE, ADD = STRAIN FREE 
E_STEP_9
*SFILM
LEFT_1, F, 20, 0.0
*RESTART, WRITE, FREQUENCY = 0
*OUTPUT, FIELD, VARIABLE = PRESELECT
*OUTPUT, HISTORY, VARIABLE = PRESELECT
*NODE OUTPUT, NSET = N2
U
*END STEP

*STEP,NAME = STEP_10, INC= 20000, NLGEOM = YES
*COUPLED TEMPERATURE-DISPLACEMENT,DELTMX = 10., CETOL= 1e-3
0, 0.17999999999999972, 1e-9,0.17999999999999972
**SOLUTION TECHNIQUE, TYPE = SEPARATED
*BOUNDARY, TYPE = DISPLACEMENT
BUILD_PLATE, 1, 1 
BUILD_PLATE, 2, 2 
BUILD_PLATE, 3, 3 
*RESTART, WRITE, FREQUENCY = 0
*OUTPUT, FIELD, VARIABLE = PRESELECT
*OUTPUT, HISTORY, VARIABLE = PRESELECT
*NODE OUTPUT, NSET = N2
U
*END STEP

*STEP,NAME = STEP_11, INC= 20000, NLGEOM = YES
*COUPLED TEMPERATURE-DISPLACEMENT,DELTMX = 10., CETOL= 1e-3
0, 0.2999999999999998, 1e-9,0.2999999999999998
**SOLUTION TECHNIQUE, TYPE = SEPARATED
*BOUNDARY, TYPE = DISPLACEMENT
BUILD_PLATE, 1, 1 
BUILD_PLATE, 2, 2 
BUILD_PLATE, 3, 3 
*MODEL CHANGE, ADD = STRAIN FREE 
E_STEP_11
*SFILM
RIGHT_9, F, 20, 0.0
*SFILM
RIGHT_8, F, 20, 0.0
*RESTART, WRITE, FREQUENCY = 0
*OUTPUT, FIELD, VARIABLE = PRESELECT
*OUTPUT, HISTORY, VARIABLE = PRESELECT
*NODE OUTPUT, NSET = N2
U
*END STEP

*STEP,NAME = STEP_12, INC= 20000, NLGEOM = YES
*COUPLED TEMPERATURE-DISPLACEMENT,DELTMX = 10., CETOL= 1e-3
0, 0.2999999999999998, 1e-9,0.2999999999999998
**SOLUTION TECHNIQUE, TYPE = SEPARATED
*BOUNDARY, TYPE = DISPLACEMENT
BUILD_PLATE, 1, 1 
BUILD_PLATE, 2, 2 
BUILD_PLATE, 3, 3 
*MODEL CHANGE, ADD = STRAIN FREE 
E_STEP_12
*SFILM
RIGHT_7, F, 20, 0.0
*SFILM
RIGHT_8, F, 20, 0.0
*RESTART, WRITE, FREQUENCY = 0
*OUTPUT, FIELD, VARIABLE = PRESELECT
*OUTPUT, HISTORY, VARIABLE = PRESELECT
*NODE OUTPUT, NSET = N2
U
*END STEP

*STEP,NAME = STEP_13, INC= 20000, NLGEOM = YES
*COUPLED TEMPERATURE-DISPLACEMENT,DELTMX = 10., CETOL= 1e-3
0, 0.3000000000000007, 1e-9,0.3000000000000007
**SOLUTION TECHNIQUE, TYPE = SEPARATED
*BOUNDARY, TYPE = DISPLACEMENT
BUILD_PLATE, 1, 1 
BUILD_PLATE, 2, 2 
BUILD_PLATE, 3, 3 
*MODEL CHANGE, ADD = STRAIN FREE 
E_STEP_13
*SFILM
RIGHT_6, F, 20, 0.0
*SFILM
RIGHT_7, F, 20, 0.0
*RESTART, WRITE, FREQUENCY = 0
*OUTPUT, FIELD, VARIABLE = PRESELECT
*OUTPUT, HISTORY, VARIABLE = PRESELECT
*NODE OUTPUT, NSET = N2
U
*END STEP

*STEP,NAME = STEP_14, INC= 20000, NLGEOM = YES
*COUPLED TEMPERATURE-DISPLACEMENT,DELTMX = 10., CETOL= 1e-3
0, 0.2999999999999998, 1e-9,0.2999999999999998
**SOLUTION TECHNIQUE, TYPE = SEPARATED
*BOUNDARY, TYPE = DISPLACEMENT
BUILD_PLATE, 1, 1 
BUILD_PLATE, 2, 2 
BUILD_PLATE, 3, 3 
*MODEL CHANGE, ADD = STRAIN FREE 
E_STEP_14
*SFILM
RIGHT_6, F, 20, 0.0
*RESTART, WRITE, FREQUENCY = 0
*OUTPUT, FIELD, VARIABLE = PRESELECT
*OUTPUT, HISTORY, VARIABLE = PRESELECT
*NODE OUTPUT, NSET = N2
U
*END STEP

*STEP,NAME = STEP_15, INC= 20000, NLGEOM = YES
*COUPLED TEMPERATURE-DISPLACEMENT,DELTMX = 10., CETOL= 1e-3
0, 0.17999999999999972, 1e-9,0.17999999999999972
**SOLUTION TECHNIQUE, TYPE = SEPARATED
*BOUNDARY, TYPE = DISPLACEMENT
BUILD_PLATE, 1, 1 
BUILD_PLATE, 2, 2 
BUILD_PLATE, 3, 3 
*RESTART, WRITE, FREQUENCY = 0
*OUTPUT, FIELD, VARIABLE = PRESELECT
*OUTPUT, HISTORY, VARIABLE = PRESELECT
*NODE OUTPUT, NSET = N2
U
*END STEP

*STEP,NAME = STEP_16, INC= 20000, NLGEOM = YES
*COUPLED TEMPERATURE-DISPLACEMENT,DELTMX = 10., CETOL= 1e-3
0, 0.2999999999999998, 1e-9,0.2999999999999998
**SOLUTION TECHNIQUE, TYPE = SEPARATED
*BOUNDARY, TYPE = DISPLACEMENT
BUILD_PLATE, 1, 1 
BUILD_PLATE, 2, 2 
BUILD_PLATE, 3, 3 
*MODEL CHANGE, ADD = STRAIN FREE 
E_STEP_16
*SFILM
LEFT_14, F, 20, 0.0
*SFILM
LEFT_13, F, 20, 0.0
*RESTART, WRITE, FREQUENCY = 0
*OUTPUT, FIELD, VARIABLE = PRESELECT
*OUTPUT, HISTORY, VARIABLE = PRESELECT
*NODE OUTPUT, NSET = N2
U
*END STEP

*STEP,NAME = STEP_17, INC= 20000, NLGEOM = YES
*COUPLED TEMPERATURE-DISPLACEMENT,DELTMX = 10., CETOL= 1e-3
0, 0.3000000000000007, 1e-9,0.3000000000000007
**SOLUTION TECHNIQUE, TYPE = SEPARATED
*BOUNDARY, TYPE = DISPLACEMENT
BUILD_PLATE, 1, 1 
BUILD_PLATE, 2, 2 
BUILD_PLATE, 3, 3 
*MODEL CHANGE, ADD = STRAIN FREE 
E_STEP_17
*SFILM
LEFT_12, F, 20, 0.0
*SFILM
LEFT_13, F, 20, 0.0
*RESTART, WRITE, FREQUENCY = 0
*OUTPUT, FIELD, VARIABLE = PRESELECT
*OUTPUT, HISTORY, VARIABLE = PRESELECT
*NODE OUTPUT, NSET = N2
U
*END STEP

*STEP,NAME = STEP_18, INC= 20000, NLGEOM = YES
*COUPLED TEMPERATURE-DISPLACEMENT,DELTMX = 10., CETOL= 1e-3
0, 0.29999999999999893, 1e-9,0.29999999999999893
**SOLUTION TECHNIQUE, TYPE = SEPARATED
*BOUNDARY, TYPE = DISPLACEMENT
BUILD_PLATE, 1, 1 
BUILD_PLATE, 2, 2 
BUILD_PLATE, 3, 3 
*MODEL CHANGE, ADD = STRAIN FREE 
E_STEP_18
*SFILM
LEFT_11, F, 20, 0.0
*SFILM
LEFT_12, F, 20, 0.0
*RESTART, WRITE, FREQUENCY = 0
*OUTPUT, FIELD, VARIABLE = PRESELECT
*OUTPUT, HISTORY, VARIABLE = PRESELECT
*NODE OUTPUT, NSET = N2
U
*END STEP

*STEP,NAME = STEP_19, INC= 20000, NLGEOM = YES
*COUPLED TEMPERATURE-DISPLACEMENT,DELTMX = 10., CETOL= 1e-3
0, 0.3000000000000007, 1e-9,0.3000000000000007
**SOLUTION TECHNIQUE, TYPE = SEPARATED
*BOUNDARY, TYPE = DISPLACEMENT
BUILD_PLATE, 1, 1 
BUILD_PLATE, 2, 2 
BUILD_PLATE, 3, 3 
*MODEL CHANGE, ADD = STRAIN FREE 
E_STEP_19
*SFILM
LEFT_11, F, 20, 0.0
*RESTART, WRITE, FREQUENCY = 0
*OUTPUT, FIELD, VARIABLE = PRESELECT
*OUTPUT, HISTORY, VARIABLE = PRESELECT
*NODE OUTPUT, NSET = N2
U
*END STEP

*STEP,NAME = STEP_20, INC= 20000, NLGEOM = YES
*COUPLED TEMPERATURE-DISPLACEMENT,DELTMX = 10., CETOL= 1e-3
0, 0.6613622305514575, 1e-9,0.6613622305514575
**SOLUTION TECHNIQUE, TYPE = SEPARATED
*BOUNDARY, TYPE = DISPLACEMENT
BUILD_PLATE, 1, 1 
BUILD_PLATE, 2, 2 
BUILD_PLATE, 3, 3 
*RESTART, WRITE, FREQUENCY = 0
*OUTPUT, FIELD, VARIABLE = PRESELECT
*OUTPUT, HISTORY, VARIABLE = PRESELECT
*NODE OUTPUT, NSET = N2
U
*END STEP

*STEP,NAME = STEP_21, INC= 20000, NLGEOM = YES
*COUPLED TEMPERATURE-DISPLACEMENT,DELTMX = 10., CETOL= 1e-3
0, 0.3000000000000007, 1e-9,0.3000000000000007
**SOLUTION TECHNIQUE, TYPE = SEPARATED
*BOUNDARY, TYPE = DISPLACEMENT
BUILD_PLATE, 1, 1 
BUILD_PLATE, 2, 2 
BUILD_PLATE, 3, 3 
*MODEL CHANGE, ADD = STRAIN FREE 
E_STEP_21
*RESTART, WRITE, FREQUENCY = 0
*OUTPUT, FIELD, VARIABLE = PRESELECT
*OUTPUT, HISTORY, VARIABLE = PRESELECT
*NODE OUTPUT, NSET = N2
U
*END STEP

*STEP,NAME = STEP_22, INC= 20000, NLGEOM = YES
*COUPLED TEMPERATURE-DISPLACEMENT,DELTMX = 10., CETOL= 1e-3
0, 0.29999999999999893, 1e-9,0.29999999999999893
**SOLUTION TECHNIQUE, TYPE = SEPARATED
*BOUNDARY, TYPE = DISPLACEMENT
BUILD_PLATE, 1, 1 
BUILD_PLATE, 2, 2 
BUILD_PLATE, 3, 3 
*MODEL CHANGE, ADD = STRAIN FREE 
E_STEP_22
*RESTART, WRITE, FREQUENCY = 0
*OUTPUT, FIELD, VARIABLE = PRESELECT
*OUTPUT, HISTORY, VARIABLE = PRESELECT
*NODE OUTPUT, NSET = N2
U
*END STEP

*STEP,NAME = STEP_23, INC= 20000, NLGEOM = YES
*COUPLED TEMPERATURE-DISPLACEMENT,DELTMX = 10., CETOL= 1e-3
0, 0.29999999999999893, 1e-9,0.29999999999999893
**SOLUTION TECHNIQUE, TYPE = SEPARATED
*BOUNDARY, TYPE = DISPLACEMENT
BUILD_PLATE, 1, 1 
BUILD_PLATE, 2, 2 
BUILD_PLATE, 3, 3 
*MODEL CHANGE, ADD = STRAIN FREE 
E_STEP_23
*RESTART, WRITE, FREQUENCY = 0
*OUTPUT, FIELD, VARIABLE = PRESELECT
*OUTPUT, HISTORY, VARIABLE = PRESELECT
*NODE OUTPUT, NSET = N2
U
*END STEP

*STEP,NAME = STEP_24, INC= 20000, NLGEOM = YES
*COUPLED TEMPERATURE-DISPLACEMENT,DELTMX = 10., CETOL= 1e-3
0, 0.3000000000000007, 1e-9,0.3000000000000007
**SOLUTION TECHNIQUE, TYPE = SEPARATED
*BOUNDARY, TYPE = DISPLACEMENT
BUILD_PLATE, 1, 1 
BUILD_PLATE, 2, 2 
BUILD_PLATE, 3, 3 
*MODEL CHANGE, ADD = STRAIN FREE 
E_STEP_24
*RESTART, WRITE, FREQUENCY = 0
*OUTPUT, FIELD, VARIABLE = PRESELECT
*OUTPUT, HISTORY, VARIABLE = PRESELECT
*NODE OUTPUT, NSET = N2
U
*END STEP

*STEP,NAME = STEP_25, INC= 20000, NLGEOM = YES
*COUPLED TEMPERATURE-DISPLACEMENT,DELTMX = 10., CETOL= 1e-3
0, 0.17999999999999972, 1e-9,0.17999999999999972
**SOLUTION TECHNIQUE, TYPE = SEPARATED
*BOUNDARY, TYPE = DISPLACEMENT
BUILD_PLATE, 1, 1 
BUILD_PLATE, 2, 2 
BUILD_PLATE, 3, 3 
*RESTART, WRITE, FREQUENCY = 0
*OUTPUT, FIELD, VARIABLE = PRESELECT
*OUTPUT, HISTORY, VARIABLE = PRESELECT
*NODE OUTPUT, NSET = N2
U
*END STEP

*STEP,NAME = STEP_26, INC= 20000, NLGEOM = YES
*COUPLED TEMPERATURE-DISPLACEMENT,DELTMX = 10., CETOL= 1e-3
0, 0.3000000000000007, 1e-9,0.3000000000000007
**SOLUTION TECHNIQUE, TYPE = SEPARATED
*BOUNDARY, TYPE = DISPLACEMENT
BUILD_PLATE, 1, 1 
BUILD_PLATE, 2, 2 
BUILD_PLATE, 3, 3 
*MODEL CHANGE, ADD = STRAIN FREE 
E_STEP_26
*SFILM
RIGHT_24, F, 20, 0.0
*SFILM
RIGHT_23, F, 20, 0.0
*RESTART, WRITE, FREQUENCY = 0
*OUTPUT, FIELD, VARIABLE = PRESELECT
*OUTPUT, HISTORY, VARIABLE = PRESELECT
*NODE OUTPUT, NSET = N2
U
*END STEP

*STEP,NAME = STEP_27, INC= 20000, NLGEOM = YES
*COUPLED TEMPERATURE-DISPLACEMENT,DELTMX = 10., CETOL= 1e-3
0, 0.29999999999999893, 1e-9,0.29999999999999893
**SOLUTION TECHNIQUE, TYPE = SEPARATED
*BOUNDARY, TYPE = DISPLACEMENT
BUILD_PLATE, 1, 1 
BUILD_PLATE, 2, 2 
BUILD_PLATE, 3, 3 
*MODEL CHANGE, ADD = STRAIN FREE 
E_STEP_27
*SFILM
RIGHT_22, F, 20, 0.0
*SFILM
RIGHT_23, F, 20, 0.0
*RESTART, WRITE, FREQUENCY = 0
*OUTPUT, FIELD, VARIABLE = PRESELECT
*OUTPUT, HISTORY, VARIABLE = PRESELECT
*NODE OUTPUT, NSET = N2
U
*END STEP

*STEP,NAME = STEP_28, INC= 20000, NLGEOM = YES
*COUPLED TEMPERATURE-DISPLACEMENT,DELTMX = 10., CETOL= 1e-3
0, 0.29999999999999893, 1e-9,0.29999999999999893
**SOLUTION TECHNIQUE, TYPE = SEPARATED
*BOUNDARY, TYPE = DISPLACEMENT
BUILD_PLATE, 1, 1 
BUILD_PLATE, 2, 2 
BUILD_PLATE, 3, 3 
*MODEL CHANGE, ADD = STRAIN FREE 
E_STEP_28
*SFILM
RIGHT_21, F, 20, 0.0
*SFILM
RIGHT_22, F, 20, 0.0
*RESTART, WRITE, FREQUENCY = 0
*OUTPUT, FIELD, VARIABLE = PRESELECT
*OUTPUT, HISTORY, VARIABLE = PRESELECT
*NODE OUTPUT, NSET = N2
U
*END STEP

*STEP,NAME = STEP_29, INC= 20000, NLGEOM = YES
*COUPLED TEMPERATURE-DISPLACEMENT,DELTMX = 10., CETOL= 1e-3
0, 0.3000000000000007, 1e-9,0.3000000000000007
**SOLUTION TECHNIQUE, TYPE = SEPARATED
*BOUNDARY, TYPE = DISPLACEMENT
BUILD_PLATE, 1, 1 
BUILD_PLATE, 2, 2 
BUILD_PLATE, 3, 3 
*MODEL CHANGE, ADD = STRAIN FREE 
E_STEP_29
*SFILM
RIGHT_21, F, 20, 0.0
*RESTART, WRITE, FREQUENCY = 0
*OUTPUT, FIELD, VARIABLE = PRESELECT
*OUTPUT, HISTORY, VARIABLE = PRESELECT
*NODE OUTPUT, NSET = N2
U
*END STEP

*STEP,NAME = STEP_30, INC= 20000, NLGEOM = YES
*COUPLED TEMPERATURE-DISPLACEMENT,DELTMX = 10., CETOL= 1e-3
0, 0.17999999999999972, 1e-9,0.17999999999999972
**SOLUTION TECHNIQUE, TYPE = SEPARATED
*BOUNDARY, TYPE = DISPLACEMENT
BUILD_PLATE, 1, 1 
BUILD_PLATE, 2, 2 
BUILD_PLATE, 3, 3 
*RESTART, WRITE, FREQUENCY = 0
*OUTPUT, FIELD, VARIABLE = PRESELECT
*OUTPUT, HISTORY, VARIABLE = PRESELECT
*NODE OUTPUT, NSET = N2
U
*END STEP

*STEP,NAME = STEP_31, INC= 20000, NLGEOM = YES
*COUPLED TEMPERATURE-DISPLACEMENT,DELTMX = 10., CETOL= 1e-3
0, 0.3000000000000007, 1e-9,0.3000000000000007
**SOLUTION TECHNIQUE, TYPE = SEPARATED
*BOUNDARY, TYPE = DISPLACEMENT
BUILD_PLATE, 1, 1 
BUILD_PLATE, 2, 2 
BUILD_PLATE, 3, 3 
*MODEL CHANGE, ADD = STRAIN FREE 
E_STEP_31
*SFILM
LEFT_29, F, 20, 0.0
*SFILM
LEFT_28, F, 20, 0.0
*RESTART, WRITE, FREQUENCY = 0
*OUTPUT, FIELD, VARIABLE = PRESELECT
*OUTPUT, HISTORY, VARIABLE = PRESELECT
*NODE OUTPUT, NSET = N2
U
*END STEP

*STEP,NAME = STEP_32, INC= 20000, NLGEOM = YES
*COUPLED TEMPERATURE-DISPLACEMENT,DELTMX = 10., CETOL= 1e-3
0, 0.29999999999999893, 1e-9,0.29999999999999893
**SOLUTION TECHNIQUE, TYPE = SEPARATED
*BOUNDARY, TYPE = DISPLACEMENT
BUILD_PLATE, 1, 1 
BUILD_PLATE, 2, 2 
BUILD_PLATE, 3, 3 
*MODEL CHANGE, ADD = STRAIN FREE 
E_STEP_32
*SFILM
LEFT_27, F, 20, 0.0
*SFILM
LEFT_28, F, 20, 0.0
*RESTART, WRITE, FREQUENCY = 0
*OUTPUT, FIELD, VARIABLE = PRESELECT
*OUTPUT, HISTORY, VARIABLE = PRESELECT
*NODE OUTPUT, NSET = N2
U
*END STEP

*STEP,NAME = STEP_33, INC= 20000, NLGEOM = YES
*COUPLED TEMPERATURE-DISPLACEMENT,DELTMX = 10., CETOL= 1e-3
0, 0.29999999999999893, 1e-9,0.29999999999999893
**SOLUTION TECHNIQUE, TYPE = SEPARATED
*BOUNDARY, TYPE = DISPLACEMENT
BUILD_PLATE, 1, 1 
BUILD_PLATE, 2, 2 
BUILD_PLATE, 3, 3 
*MODEL CHANGE, ADD = STRAIN FREE 
E_STEP_33
*SFILM
LEFT_26, F, 20, 0.0
*SFILM
LEFT_27, F, 20, 0.0
*RESTART, WRITE, FREQUENCY = 0
*OUTPUT, FIELD, VARIABLE = PRESELECT
*OUTPUT, HISTORY, VARIABLE = PRESELECT
*NODE OUTPUT, NSET = N2
U
*END STEP

*STEP,NAME = STEP_34, INC= 20000, NLGEOM = YES
*COUPLED TEMPERATURE-DISPLACEMENT,DELTMX = 10., CETOL= 1e-3
0, 0.3000000000000007, 1e-9,0.3000000000000007
**SOLUTION TECHNIQUE, TYPE = SEPARATED
*BOUNDARY, TYPE = DISPLACEMENT
BUILD_PLATE, 1, 1 
BUILD_PLATE, 2, 2 
BUILD_PLATE, 3, 3 
*MODEL CHANGE, ADD = STRAIN FREE 
E_STEP_34
*SFILM
LEFT_26, F, 20, 0.0
*RESTART, WRITE, FREQUENCY = 0
*OUTPUT, FIELD, VARIABLE = PRESELECT
*OUTPUT, HISTORY, VARIABLE = PRESELECT
*NODE OUTPUT, NSET = N2
U
*END STEP

*STEP,NAME = STEP_35, INC= 20000, NLGEOM = YES
*COUPLED TEMPERATURE-DISPLACEMENT,DELTMX = 10., CETOL= 1e-3
0, 0.17999999999999972, 1e-9,0.17999999999999972
**SOLUTION TECHNIQUE, TYPE = SEPARATED
*BOUNDARY, TYPE = DISPLACEMENT
BUILD_PLATE, 1, 1 
BUILD_PLATE, 2, 2 
BUILD_PLATE, 3, 3 
*RESTART, WRITE, FREQUENCY = 0
*OUTPUT, FIELD, VARIABLE = PRESELECT
*OUTPUT, HISTORY, VARIABLE = PRESELECT
*NODE OUTPUT, NSET = N2
U
*END STEP

*STEP,NAME = STEP_36, INC= 20000, NLGEOM = YES
*COUPLED TEMPERATURE-DISPLACEMENT,DELTMX = 10., CETOL= 1e-3
0, 0.3000000000000007, 1e-9,0.3000000000000007
**SOLUTION TECHNIQUE, TYPE = SEPARATED
*BOUNDARY, TYPE = DISPLACEMENT
BUILD_PLATE, 1, 1 
BUILD_PLATE, 2, 2 
BUILD_PLATE, 3, 3 
*MODEL CHANGE, ADD = STRAIN FREE 
E_STEP_36
*SFILM
RIGHT_34, F, 20, 0.0
*SFILM
RIGHT_33, F, 20, 0.0
*RESTART, WRITE, FREQUENCY = 0
*OUTPUT, FIELD, VARIABLE = PRESELECT
*OUTPUT, HISTORY, VARIABLE = PRESELECT
*NODE OUTPUT, NSET = N2
U
*END STEP

*STEP,NAME = STEP_37, INC= 20000, NLGEOM = YES
*COUPLED TEMPERATURE-DISPLACEMENT,DELTMX = 10., CETOL= 1e-3
0, 0.29999999999999893, 1e-9,0.29999999999999893
**SOLUTION TECHNIQUE, TYPE = SEPARATED
*BOUNDARY, TYPE = DISPLACEMENT
BUILD_PLATE, 1, 1 
BUILD_PLATE, 2, 2 
BUILD_PLATE, 3, 3 
*MODEL CHANGE, ADD = STRAIN FREE 
E_STEP_37
*SFILM
RIGHT_32, F, 20, 0.0
*SFILM
RIGHT_33, F, 20, 0.0
*RESTART, WRITE, FREQUENCY = 0
*OUTPUT, FIELD, VARIABLE = PRESELECT
*OUTPUT, HISTORY, VARIABLE = PRESELECT
*NODE OUTPUT, NSET = N2
U
*END STEP

*STEP,NAME = STEP_38, INC= 20000, NLGEOM = YES
*COUPLED TEMPERATURE-DISPLACEMENT,DELTMX = 10., CETOL= 1e-3
0, 0.29999999999999893, 1e-9,0.29999999999999893
**SOLUTION TECHNIQUE, TYPE = SEPARATED
*BOUNDARY, TYPE = DISPLACEMENT
BUILD_PLATE, 1, 1 
BUILD_PLATE, 2, 2 
BUILD_PLATE, 3, 3 
*MODEL CHANGE, ADD = STRAIN FREE 
E_STEP_38
*SFILM
RIGHT_31, F, 20, 0.0
*SFILM
RIGHT_32, F, 20, 0.0
*RESTART, WRITE, FREQUENCY = 0
*OUTPUT, FIELD, VARIABLE = PRESELECT
*OUTPUT, HISTORY, VARIABLE = PRESELECT
*NODE OUTPUT, NSET = N2
U
*END STEP

*STEP,NAME = STEP_39, INC= 20000, NLGEOM = YES
*COUPLED TEMPERATURE-DISPLACEMENT,DELTMX = 10., CETOL= 1e-3
0, 0.3000000000000007, 1e-9,0.3000000000000007
**SOLUTION TECHNIQUE, TYPE = SEPARATED
*BOUNDARY, TYPE = DISPLACEMENT
BUILD_PLATE, 1, 1 
BUILD_PLATE, 2, 2 
BUILD_PLATE, 3, 3 
*MODEL CHANGE, ADD = STRAIN FREE 
E_STEP_39
*SFILM
RIGHT_31, F, 20, 0.0
*RESTART, WRITE, FREQUENCY = 0
*OUTPUT, FIELD, VARIABLE = PRESELECT
*OUTPUT, HISTORY, VARIABLE = PRESELECT
*NODE OUTPUT, NSET = N2
U
*END STEP


** SERVICE LOADING OF THE PART **
*STEP,NAME = SERVICE, INC= 20000, NLGEOM = YES
*COUPLED TEMPERATURE-DISPLACEMENT,DELTMX = 10., CETOL= 1e-3
0, 0.3000000000000007, 1e-9,0.3000000000000007
**SOLUTION TECHNIQUE, TYPE = SEPARATED
*INITIAL CONDITIONS, TYPE = TEMPERATURE
ALLNODES, 20.
*BOUNDARY, TYPE = DISPLACEMENT, OP = NEW
1, 1, 1
1, 2, 2
1, 3, 3
1, 4, 4
1, 5, 5
1, 6, 6
*SFILM, OP = NEW
*RESTART, WRITE, FREQUENCY = 0
*OUTPUT, FIELD, VARIABLE = PRESELECT
*OUTPUT, HISTORY, VARIABLE = PRESELECT
*NODE OUTPUT, NSET = N2
U
*END STEP
