*NODE,NSET = ALLNODES
1	,-9.184850993605148e-21	,0.00015	,0.0 
2	,-6.1232339957367656e-21	,9.999999999999999e-05	,0.0 
3	,-3.061616997868382e-21	,4.999999999999998e-05	,0.0 
4	,0.0	,0.0	,0.0 
5	,3.0616169978683843e-21	,-5.000000000000002e-05	,0.0 
6	,6.123233995736767e-21	,-0.00010000000000000002	,0.0 
7	,9.184850993605148e-21	,-0.00015	,0.0 
8	,-9.184850993605148e-21	,0.00015	,5e-05 
9	,-3.061616997868382e-21	,4.999999999999998e-05	,5e-05 
10	,3.0616169978683843e-21	,-5.000000000000002e-05	,5e-05 
11	,9.184850993605148e-21	,-0.00015	,5e-05 
12	,-9.184850993605148e-21	,0.00015	,0.0001 
13	,-6.1232339957367656e-21	,9.999999999999999e-05	,0.0001 
14	,-3.061616997868382e-21	,4.999999999999998e-05	,0.0001 
15	,0.0	,0.0	,0.0001 
16	,3.0616169978683843e-21	,-5.000000000000002e-05	,0.0001 
17	,6.123233995736767e-21	,-0.00010000000000000002	,0.0001 
18	,9.184850993605148e-21	,-0.00015	,0.0001 
19	,-9.184850993605148e-21	,0.00015	,0.00015 
20	,-3.061616997868382e-21	,4.999999999999998e-05	,0.00015 
** ... 8636 like lines cut
*ELEMENT,ELSET = ALLELEMENTS, TYPE = C3D20T
1,12,14,3,1,52,54,43,41,13,9,2,8,53,49,42,48,85,86,82,81
2,14,16,5,3,54,56,45,43,15,10,4,9,55,50,44,49,86,87,83,82
3,16,18,7,5,56,58,47,45,17,11,6,10,57,51,46,50,87,88,84,83
4,23,25,14,12,63,65,54,52,24,20,13,19,64,60,53,59,89,90,86,85
5,25,27,16,14,65,67,56,54,26,21,15,20,66,61,55,60,90,91,87,86
6,27,29,18,16,67,69,58,56,28,22,17,21,68,62,57,61,91,92,88,87
7,34,36,25,23,74,76,65,63,35,31,24,30,75,71,64,70,93,94,90,89
8,36,38,27,25,76,78,67,65,37,32,26,31,77,72,66,71,94,95,91,90
9,38,40,29,27,78,80,69,67,39,33,28,32,79,73,68,72,95,96,92,91
10,52,54,43,41,108,110,99,97,53,49,42,48,109,105,98,104,141,142,138,137
11,54,56,45,43,110,112,101,99,55,50,44,49,111,106,100,105,142,143,139,138
12,56,58,47,45,112,114,103,101,57,51,46,50,113,107,102,106,143,144,140,139
13,63,65,54,52,119,121,110,108,64,60,53,59,120,116,109,115,145,146,142,141
14,65,67,56,54,121,123,112,110,66,61,55,60,122,117,111,116,146,147,143,142
15,67,69,58,56,123,125,114,112,68,62,57,61,124,118,113,117,147,148,144,143
16,74,76,65,63,130,132,121,119,75,71,64,70,131,127,120,126,149,150,146,145
17,76,78,67,65,132,134,123,121,77,72,66,71,133,128,122,127,150,151,147,146
18,78,80,69,67,134,136,125,123,79,73,68,72,135,129,124,128,151,152,148,147
19,108,110,99,97,164,166,155,153,109,105,98,104,165,161,154,160,197,198,194,193
20,110,112,101,99,166,168,157,155,111,106,100,105,167,162,156,161,198,199,195,194
** ... 1708 like lines cut
*Material, name=ABSP400
*Conductivity
 0.3,
*Density
1050.,
*Elastic, moduli=LONG TERM
2340e6., 0.4
*Expansion
 1e-05,
*Specific Heat
2020.,
**Viscoelastic, time=PRONY
** 0.01,  0., 0.1
** 0.35,  0.,  1.
** 0.24,  0.,  7.
**0.21,  1.,100.
**Trs
**108.,  8.86, 101.6
*SOLID SECTION, ELSET=ALLELEMENTS, MATERIAL = ABSP400
*SURFACE, NAME = BUILD_SURFACE, TYPE=ELEMENT
 1, S5
 2, S5
 3, S5
 10, S5
 11, S5
 12, S5
 19, S5
 20, S5
 21, S5
 28, S5
 29, S5
 30, S5
 37, S5
 38, S5
 39, S5
 46, S5
 47, S5
 48, S5
 55, S5
 56, S5
** ... 268 like lines cut
**ELEMENTS BY DEPOSISTION STEP
*ELSET, ELSET = E_STEP_1
1,
2,
3,
4,
5,
6,
7,
8,
9,
10,
11,
12,
13,
14,
15,
16,
17,
18,
19,
20,
** ... 7 like lines cut
*ELSET, ELSET = E_STEP_2
28,
29,
30,
31,
32,
33,
34,
35,
36,
37,
38,
39,
40,
41,
42,
43,
44,
45,
46,
47,
** ... 7 like lines cut
*ELSET, ELSET = E_STEP_3
55,
56,
57,
58,
59,
60,
61,
62,
63,
64,
65,
66,
67,
68,
69,
70,
71,
72,
73,
74,
** ... 7 like lines cut
*ELSET, ELSET = E_STEP_4
82,
83,
84,
85,
86,
87,
88,
89,
90,
91,
92,
93,
94,
95,
96,
97,
98,
99,
100,
101,
** ... 7 like lines cut
*ELSET, ELSET = E_STEP_5
109,
110,
111,
112,
113,
114,
115,
116,
117,
118,
119,
120,
121,
122,
123,
124,
125,
126,
127,
128,
** ... 7 like lines cut
*ELSET, ELSET = E_STEP_6
136,
137,
138,
139,
140,
141,
142,
143,
144,
145,
146,
147,
148,
149,
150,
151,
152,
153,
154,
155,
** ... 7 like lines cut
*ELSET, ELSET = E_STEP_7
163,
164,
165,
166,
167,
168,
169,
170,
171,
172,
173,
174,
175,
176,
177,
178,
179,
180,
181,
182,
** ... 7 like lines cut
*ELSET, ELSET = E_STEP_8
190,
191,
192,
193,
194,
195,
196,
197,
198,
199,
200,
201,
202,
203,
204,
205,
206,
207,
208,
209,
** ... 7 like lines cut
*ELSET, ELSET = E_STEP_11
217,
218,
219,
220,
221,
222,
223,
224,
225,
226,
227,
228,
229,
230,
231,
232,
233,
234,
235,
236,
** ... 7 like lines cut
*ELSET, ELSET = E_STEP_12
244,
245,
246,
247,
248,
249,
250,
251,
252,
253,
254,
255,
256,
257,
258,
259,
260,
261,
262,
263,
** ... 7 like lines cut
*ELSET, ELSET = E_STEP_13
271,
272,
273,
274,
275,
276,
277,
278,
279,
280,
281,
282,
283,
284,
285,
286,
287,
288,
289,
290,
** ... 7 like lines cut
*ELSET, ELSET = E_STEP_14
298,
299,
300,
301,
302,
303,
304,
305,
306,
307,
308,
309,
310,
311,
312,
313,
314,
315,
316,
317,
** ... 7 like lines cut
*ELSET, ELSET = E_STEP_15
325,
326,
327,
328,
329,
330,
331,
332,
333,
334,
335,
336,
337,
338,
339,
340,
341,
342,
343,
344,
** ... 7 like lines cut
*ELSET, ELSET = E_STEP_16
352,
353,
354,
355,
356,
357,
358,
359,
360,
361,
362,
363,
364,
365,
366,
367,
368,
369,
370,
371,
** ... 7 like lines cut
*ELSET, ELSET = E_STEP_17
379,
380,
381,
382,
383,
384,
385,
386,
387,
388,
389,
390,
391,
392,
393,
394,
395,
396,
397,
398,
** ... 7 like lines cut
*ELSET, ELSET = E_STEP_18
406,
407,
408,
409,
410,
411,
412,
413,
414,
415,
416,
417,
418,
419,
420,
421,
422,
423,
424,
425,
** ... 7 like lines cut
*ELSET, ELSET = E_STEP_21
433,
434,
435,
436,
437,
438,
439,
440,
441,
442,
443,
444,
445,
446,
447,
448,
449,
450,
451,
452,
** ... 7 like lines cut
*ELSET, ELSET = E_STEP_22
460,
461,
462,
463,
464,
465,
466,
467,
468,
469,
470,
471,
472,
473,
474,
475,
476,
477,
478,
479,
** ... 7 like lines cut
*ELSET, ELSET = E_STEP_23
487,
488,
489,
490,
491,
492,
493,
494,
495,
496,
497,
498,
499,
500,
501,
502,
503,
504,
505,
506,
** ... 7 like lines cut
*ELSET, ELSET = E_STEP_24
514,
515,
516,
517,
518,
519,
520,
521,
522,
523,
524,
525,
526,
527,
528,
529,
530,
531,
532,
533,
** ... 7 like lines cut
*ELSET, ELSET = E_STEP_25
541,
542,
543,
544,
545,
546,
547,
548,
549,
550,
551,
552,
553,
554,
555,
556,
557,
558,
559,
560,
** ... 7 like lines cut
*ELSET, ELSET = E_STEP_26
568,
569,
570,
571,
572,
573,
574,
575,
576,
577,
578,
579,
580,
581,
582,
583,
584,
585,
586,
587,
** ... 7 like lines cut
*ELSET, ELSET = E_STEP_27
595,
596,
597,
598,
599,
600,
601,
602,
603,
604,
605,
606,
607,
608,
609,
610,
611,
612,
613,
614,
** ... 7 like lines cut
*ELSET, ELSET = E_STEP_28
622,
623,
624,
625,
626,
627,
628,
629,
630,
631,
632,
633,
634,
635,
636,
637,
638,
639,
640,
641,
** ... 7 like lines cut
*ELSET, ELSET = E_STEP_31
649,
650,
651,
652,
653,
654,
655,
656,
657,
658,
659,
660,
661,
662,
663,
664,
665,
666,
667,
668,
** ... 7 like lines cut
*ELSET, ELSET = E_STEP_32
676,
677,
678,
679,
680,
681,
682,
683,
684,
685,
686,
687,
688,
689,
690,
691,
692,
693,
694,
695,
** ... 7 like lines cut
*ELSET, ELSET = E_STEP_33
703,
704,
705,
706,
707,
708,
709,
710,
711,
712,
713,
714,
715,
716,
717,
718,
719,
720,
721,
722,
** ... 7 like lines cut
*ELSET, ELSET = E_STEP_34
730,
731,
732,
733,
734,
735,
736,
737,
738,
739,
740,
741,
742,
743,
744,
745,
746,
747,
748,
749,
** ... 7 like lines cut
*ELSET, ELSET = E_STEP_35
757,
758,
759,
760,
761,
762,
763,
764,
765,
766,
767,
768,
769,
770,
771,
772,
773,
774,
775,
776,
** ... 7 like lines cut
*ELSET, ELSET = E_STEP_36
784,
785,
786,
787,
788,
789,
790,
791,
792,
793,
794,
795,
796,
797,
798,
799,
800,
801,
802,
803,
** ... 7 like lines cut
*ELSET, ELSET = E_STEP_37
811,
812,
813,
814,
815,
816,
817,
818,
819,
820,
821,
822,
823,
824,
825,
826,
827,
828,
829,
830,
** ... 7 like lines cut
*ELSET, ELSET = E_STEP_38
838,
839,
840,
841,
842,
843,
844,
845,
846,
847,
848,
849,
850,
851,
852,
853,
854,
855,
856,
857,
** ... 7 like lines cut
*ELSET, ELSET = E_STEP_41
865,
866,
867,
868,
869,
870,
871,
872,
873,
874,
875,
876,
877,
878,
879,
880,
881,
882,
883,
884,
** ... 7 like lines cut
*ELSET, ELSET = E_STEP_42
892,
893,
894,
895,
896,
897,
898,
899,
900,
901,
902,
903,
904,
905,
906,
907,
908,
909,
910,
911,
** ... 7 like lines cut
*ELSET, ELSET = E_STEP_43
919,
920,
921,
922,
923,
924,
925,
926,
927,
928,
929,
930,
931,
932,
933,
934,
935,
936,
937,
938,
** ... 7 like lines cut
*ELSET, ELSET = E_STEP_44
946,
947,
948,
949,
950,
951,
952,
953,
954,
955,
956,
957,
958,
959,
960,
961,
962,
963,
964,
965,
** ... 7 like lines cut
*ELSET, ELSET = E_STEP_45
973,
974,
975,
976,
977,
978,
979,
980,
981,
982,
983,
984,
985,
986,
987,
988,
989,
990,
991,
992,
** ... 7 like lines cut
*ELSET, ELSET = E_STEP_46
1000,
1001,
1002,
1003,
1004,
1005,
1006,
1007,
1008,
1009,
1010,
1011,
1012,
1013,
1014,
1015,
1016,
1017,
1018,
1019,
** ... 7 like lines cut
*ELSET, ELSET = E_STEP_47
1027,
1028,
1029,
1030,
1031,
1032,
1033,
1034,
1035,
1036,
1037,
1038,
1039,
1040,
1041,
1042,
1043,
1044,
1045,
1046,
** ... 7 like lines cut
*ELSET, ELSET = E_STEP_48
1054,
1055,
1056,
1057,
1058,
1059,
1060,
1061,
1062,
1063,
1064,
1065,
1066,
1067,
1068,
1069,
1070,
1071,
1072,
1073,
** ... 7 like lines cut
*ELSET, ELSET = E_STEP_51
1081,
1082,
1083,
1084,
1085,
1086,
1087,
1088,
1089,
1090,
1091,
1092,
1093,
1094,
1095,
1096,
1097,
1098,
1099,
1100,
** ... 7 like lines cut
*ELSET, ELSET = E_STEP_52
1108,
1109,
1110,
1111,
1112,
1113,
1114,
1115,
1116,
1117,
1118,
1119,
1120,
1121,
1122,
1123,
1124,
1125,
1126,
1127,
** ... 7 like lines cut
*ELSET, ELSET = E_STEP_53
1135,
1136,
1137,
1138,
1139,
1140,
1141,
1142,
1143,
1144,
1145,
1146,
1147,
1148,
1149,
1150,
1151,
1152,
1153,
1154,
** ... 7 like lines cut
*ELSET, ELSET = E_STEP_54
1162,
1163,
1164,
1165,
1166,
1167,
1168,
1169,
1170,
1171,
1172,
1173,
1174,
1175,
1176,
1177,
1178,
1179,
1180,
1181,
** ... 7 like lines cut
*ELSET, ELSET = E_STEP_55
1189,
1190,
1191,
1192,
1193,
1194,
1195,
1196,
1197,
1198,
1199,
1200,
1201,
1202,
1203,
1204,
1205,
1206,
1207,
1208,
** ... 7 like lines cut
*ELSET, ELSET = E_STEP_56
1216,
1217,
1218,
1219,
1220,
1221,
1222,
1223,
1224,
1225,
1226,
1227,
1228,
1229,
1230,
1231,
1232,
1233,
1234,
1235,
** ... 7 like lines cut
*ELSET, ELSET = E_STEP_57
1243,
1244,
1245,
1246,
1247,
1248,
1249,
1250,
1251,
1252,
1253,
1254,
1255,
1256,
1257,
1258,
1259,
1260,
1261,
1262,
** ... 7 like lines cut
*ELSET, ELSET = E_STEP_58
1270,
1271,
1272,
1273,
1274,
1275,
1276,
1277,
1278,
1279,
1280,
1281,
1282,
1283,
1284,
1285,
1286,
1287,
1288,
1289,
** ... 7 like lines cut
*ELSET, ELSET = E_STEP_61
1297,
1298,
1299,
1300,
1301,
1302,
1303,
1304,
1305,
1306,
1307,
1308,
1309,
1310,
1311,
1312,
1313,
1314,
1315,
1316,
** ... 7 like lines cut
*ELSET, ELSET = E_STEP_62
1324,
1325,
1326,
1327,
1328,
1329,
1330,
1331,
1332,
1333,
1334,
1335,
1336,
1337,
1338,
1339,
1340,
1341,
1342,
1343,
** ... 7 like lines cut
*ELSET, ELSET = E_STEP_63
1351,
1352,
1353,
1354,
1355,
1356,
1357,
1358,
1359,
1360,
1361,
1362,
1363,
1364,
1365,
1366,
1367,
1368,
1369,
1370,
** ... 7 like lines cut
*ELSET, ELSET = E_STEP_64
1378,
1379,
1380,
1381,
1382,
1383,
1384,
1385,
1386,
1387,
1388,
1389,
1390,
1391,
1392,
1393,
1394,
1395,
1396,
1397,
** ... 7 like lines cut
*ELSET, ELSET = E_STEP_65
1405,
1406,
1407,
1408,
1409,
1410,
1411,
1412,
1413,
1414,
1415,
1416,
1417,
1418,
1419,
1420,
1421,
1422,
1423,
1424,
** ... 7 like lines cut
*ELSET, ELSET = E_STEP_66
1432,
1433,
1434,
1435,
1436,
1437,
1438,
1439,
1440,
1441,
1442,
1443,
1444,
1445,
1446,
1447,
1448,
1449,
1450,
1451,
** ... 7 like lines cut
*ELSET, ELSET = E_STEP_67
1459,
1460,
1461,
1462,
1463,
1464,
1465,
1466,
1467,
1468,
1469,
1470,
1471,
1472,
1473,
1474,
1475,
1476,
1477,
1478,
** ... 7 like lines cut
*ELSET, ELSET = E_STEP_68
1486,
1487,
1488,
1489,
1490,
1491,
1492,
1493,
1494,
1495,
1496,
1497,
1498,
1499,
1500,
1501,
1502,
1503,
1504,
1505,
** ... 7 like lines cut
*ELSET, ELSET = E_STEP_71
1513,
1514,
1515,
1516,
1517,
1518,
1519,
1520,
1521,
1522,
1523,
1524,
1525,
1526,
1527,
1528,
1529,
1530,
1531,
1532,
** ... 7 like lines cut
*ELSET, ELSET = E_STEP_72
1540,
1541,
1542,
1543,
1544,
1545,
1546,
1547,
1548,
1549,
1550,
1551,
1552,
1553,
1554,
1555,
1556,
1557,
1558,
1559,
** ... 7 like lines cut
*ELSET, ELSET = E_STEP_73
1567,
1568,
1569,
1570,
1571,
1572,
1573,
1574,
1575,
1576,
1577,
1578,
1579,
1580,
1581,
1582,
1583,
1584,
1585,
1586,
** ... 7 like lines cut
*ELSET, ELSET = E_STEP_74
1594,
1595,
1596,
1597,
1598,
1599,
1600,
1601,
1602,
1603,
1604,
1605,
1606,
1607,
1608,
1609,
1610,
1611,
1612,
1613,
** ... 7 like lines cut
*ELSET, ELSET = E_STEP_75
1621,
1622,
1623,
1624,
1625,
1626,
1627,
1628,
1629,
1630,
1631,
1632,
1633,
1634,
1635,
1636,
1637,
1638,
1639,
1640,
** ... 7 like lines cut
*ELSET, ELSET = E_STEP_76
1648,
1649,
1650,
1651,
1652,
1653,
1654,
1655,
1656,
1657,
1658,
1659,
1660,
1661,
1662,
1663,
1664,
1665,
1666,
1667,
** ... 7 like lines cut
*ELSET, ELSET = E_STEP_77
1675,
1676,
1677,
1678,
1679,
1680,
1681,
1682,
1683,
1684,
1685,
1686,
1687,
1688,
1689,
1690,
1691,
1692,
1693,
1694,
** ... 7 like lines cut
*ELSET, ELSET = E_STEP_78
1702,
1703,
1704,
1705,
1706,
1707,
1708,
1709,
1710,
1711,
1712,
1713,
1714,
1715,
1716,
1717,
1718,
1719,
1720,
1721,
** ... 7 like lines cut
*NSET, NSET = BUILD_PLATE
1,
2,
3,
4,
5,
6,
7,
41,
42,
43,
44,
45,
46,
47,
81,
82,
83,
84,
97,
98,
** ... 917 like lines cut

*SURFACE, NAME = UP_1, TYPE=ELEMENT
7, S3
8, S3
9, S3
16, S3
17, S3
18, S3
25, S3
26, S3
27, S3

*SURFACE, NAME = LEFT_1, TYPE=ELEMENT
1, S6
4, S6
7, S6
10, S6
13, S6
16, S6
19, S6
22, S6
25, S6

*SURFACE, NAME = RIGHT_1, TYPE=ELEMENT
3, S4
6, S4
9, S4
12, S4
15, S4
18, S4
21, S4
24, S4
27, S4

*SURFACE, NAME = UP_2, TYPE=ELEMENT
34, S3
35, S3
36, S3
43, S3
44, S3
45, S3
52, S3
53, S3
54, S3

*SURFACE, NAME = LEFT_2, TYPE=ELEMENT
28, S6
31, S6
34, S6
37, S6
40, S6
43, S6
46, S6
49, S6
52, S6

*SURFACE, NAME = RIGHT_2, TYPE=ELEMENT
30, S4
33, S4
36, S4
39, S4
42, S4
45, S4
48, S4
51, S4
54, S4

*SURFACE, NAME = UP_3, TYPE=ELEMENT
61, S3
62, S3
63, S3
70, S3
71, S3
72, S3
79, S3
80, S3
81, S3

*SURFACE, NAME = LEFT_3, TYPE=ELEMENT
55, S6
58, S6
61, S6
64, S6
67, S6
70, S6
73, S6
76, S6
79, S6

*SURFACE, NAME = RIGHT_3, TYPE=ELEMENT
57, S4
60, S4
63, S4
66, S4
69, S4
72, S4
75, S4
78, S4
81, S4

*SURFACE, NAME = UP_4, TYPE=ELEMENT
88, S3
89, S3
90, S3
97, S3
98, S3
99, S3
106, S3
107, S3
108, S3

*SURFACE, NAME = LEFT_4, TYPE=ELEMENT
82, S6
85, S6
88, S6
91, S6
94, S6
97, S6
100, S6
103, S6
106, S6

*SURFACE, NAME = RIGHT_4, TYPE=ELEMENT
84, S4
87, S4
90, S4
93, S4
96, S4
99, S4
102, S4
105, S4
108, S4

*SURFACE, NAME = UP_5, TYPE=ELEMENT
115, S3
116, S3
117, S3
124, S3
125, S3
126, S3
133, S3
134, S3
135, S3

*SURFACE, NAME = LEFT_5, TYPE=ELEMENT
109, S6
112, S6
115, S6
118, S6
121, S6
124, S6
127, S6
130, S6
133, S6

*SURFACE, NAME = RIGHT_5, TYPE=ELEMENT
111, S4
114, S4
117, S4
120, S4
123, S4
126, S4
129, S4
132, S4
135, S4

*SURFACE, NAME = UP_6, TYPE=ELEMENT
142, S3
143, S3
144, S3
151, S3
152, S3
153, S3
160, S3
161, S3
162, S3

*SURFACE, NAME = LEFT_6, TYPE=ELEMENT
136, S6
139, S6
142, S6
145, S6
148, S6
151, S6
154, S6
157, S6
160, S6

*SURFACE, NAME = RIGHT_6, TYPE=ELEMENT
138, S4
141, S4
144, S4
147, S4
150, S4
153, S4
156, S4
159, S4
162, S4

*SURFACE, NAME = UP_7, TYPE=ELEMENT
169, S3
170, S3
171, S3
178, S3
179, S3
180, S3
187, S3
188, S3
189, S3

*SURFACE, NAME = LEFT_7, TYPE=ELEMENT
163, S6
166, S6
169, S6
172, S6
175, S6
178, S6
181, S6
184, S6
187, S6

*SURFACE, NAME = RIGHT_7, TYPE=ELEMENT
165, S4
168, S4
171, S4
174, S4
177, S4
180, S4
183, S4
186, S4
189, S4

*SURFACE, NAME = UP_8, TYPE=ELEMENT
196, S3
197, S3
198, S3
205, S3
206, S3
207, S3
214, S3
215, S3
216, S3

*SURFACE, NAME = LEFT_8, TYPE=ELEMENT
190, S6
193, S6
196, S6
199, S6
202, S6
205, S6
208, S6
211, S6
214, S6

*SURFACE, NAME = RIGHT_8, TYPE=ELEMENT
192, S4
195, S4
198, S4
201, S4
204, S4
207, S4
210, S4
213, S4
216, S4

*SURFACE, NAME = UP_11, TYPE=ELEMENT
223, S3
224, S3
225, S3
232, S3
233, S3
234, S3
241, S3
242, S3
243, S3

*SURFACE, NAME = RIGHT_11, TYPE=ELEMENT
219, S4
222, S4
225, S4
228, S4
231, S4
234, S4
237, S4
240, S4
243, S4

*SURFACE, NAME = UP_12, TYPE=ELEMENT
250, S3
251, S3
252, S3
259, S3
260, S3
261, S3
268, S3
269, S3
270, S3

*SURFACE, NAME = RIGHT_12, TYPE=ELEMENT
246, S4
249, S4
252, S4
255, S4
258, S4
261, S4
264, S4
267, S4
270, S4

*SURFACE, NAME = UP_13, TYPE=ELEMENT
277, S3
278, S3
279, S3
286, S3
287, S3
288, S3
295, S3
296, S3
297, S3

*SURFACE, NAME = RIGHT_13, TYPE=ELEMENT
273, S4
276, S4
279, S4
282, S4
285, S4
288, S4
291, S4
294, S4
297, S4

*SURFACE, NAME = UP_14, TYPE=ELEMENT
304, S3
305, S3
306, S3
313, S3
314, S3
315, S3
322, S3
323, S3
324, S3

*SURFACE, NAME = RIGHT_14, TYPE=ELEMENT
300, S4
303, S4
306, S4
309, S4
312, S4
315, S4
318, S4
321, S4
324, S4

*SURFACE, NAME = UP_15, TYPE=ELEMENT
331, S3
332, S3
333, S3
340, S3
341, S3
342, S3
349, S3
350, S3
351, S3

*SURFACE, NAME = RIGHT_15, TYPE=ELEMENT
327, S4
330, S4
333, S4
336, S4
339, S4
342, S4
345, S4
348, S4
351, S4

*SURFACE, NAME = UP_16, TYPE=ELEMENT
358, S3
359, S3
360, S3
367, S3
368, S3
369, S3
376, S3
377, S3
378, S3

*SURFACE, NAME = RIGHT_16, TYPE=ELEMENT
354, S4
357, S4
360, S4
363, S4
366, S4
369, S4
372, S4
375, S4
378, S4

*SURFACE, NAME = UP_17, TYPE=ELEMENT
385, S3
386, S3
387, S3
394, S3
395, S3
396, S3
403, S3
404, S3
405, S3

*SURFACE, NAME = RIGHT_17, TYPE=ELEMENT
381, S4
384, S4
387, S4
390, S4
393, S4
396, S4
399, S4
402, S4
405, S4

*SURFACE, NAME = UP_18, TYPE=ELEMENT
412, S3
413, S3
414, S3
421, S3
422, S3
423, S3
430, S3
431, S3
432, S3

*SURFACE, NAME = RIGHT_18, TYPE=ELEMENT
408, S4
411, S4
414, S4
417, S4
420, S4
423, S4
426, S4
429, S4
432, S4

*SURFACE, NAME = UP_21, TYPE=ELEMENT
439, S3
440, S3
441, S3
448, S3
449, S3
450, S3
457, S3
458, S3
459, S3

*SURFACE, NAME = LEFT_21, TYPE=ELEMENT
433, S6
436, S6
439, S6
442, S6
445, S6
448, S6
451, S6
454, S6
457, S6

*SURFACE, NAME = UP_22, TYPE=ELEMENT
466, S3
467, S3
468, S3
475, S3
476, S3
477, S3
484, S3
485, S3
486, S3

*SURFACE, NAME = LEFT_22, TYPE=ELEMENT
460, S6
463, S6
466, S6
469, S6
472, S6
475, S6
478, S6
481, S6
484, S6

*SURFACE, NAME = UP_23, TYPE=ELEMENT
493, S3
494, S3
495, S3
502, S3
503, S3
504, S3
511, S3
512, S3
513, S3

*SURFACE, NAME = LEFT_23, TYPE=ELEMENT
487, S6
490, S6
493, S6
496, S6
499, S6
502, S6
505, S6
508, S6
511, S6

*SURFACE, NAME = UP_24, TYPE=ELEMENT
520, S3
521, S3
522, S3
529, S3
530, S3
531, S3
538, S3
539, S3
540, S3

*SURFACE, NAME = LEFT_24, TYPE=ELEMENT
514, S6
517, S6
520, S6
523, S6
526, S6
529, S6
532, S6
535, S6
538, S6

*SURFACE, NAME = UP_25, TYPE=ELEMENT
547, S3
548, S3
549, S3
556, S3
557, S3
558, S3
565, S3
566, S3
567, S3

*SURFACE, NAME = LEFT_25, TYPE=ELEMENT
541, S6
544, S6
547, S6
550, S6
553, S6
556, S6
559, S6
562, S6
565, S6

*SURFACE, NAME = UP_26, TYPE=ELEMENT
574, S3
575, S3
576, S3
583, S3
584, S3
585, S3
592, S3
593, S3
594, S3

*SURFACE, NAME = LEFT_26, TYPE=ELEMENT
568, S6
571, S6
574, S6
577, S6
580, S6
583, S6
586, S6
589, S6
592, S6

*SURFACE, NAME = UP_27, TYPE=ELEMENT
601, S3
602, S3
603, S3
610, S3
611, S3
612, S3
619, S3
620, S3
621, S3

*SURFACE, NAME = LEFT_27, TYPE=ELEMENT
595, S6
598, S6
601, S6
604, S6
607, S6
610, S6
613, S6
616, S6
619, S6

*SURFACE, NAME = UP_28, TYPE=ELEMENT
628, S3
629, S3
630, S3
637, S3
638, S3
639, S3
646, S3
647, S3
648, S3

*SURFACE, NAME = LEFT_28, TYPE=ELEMENT
622, S6
625, S6
628, S6
631, S6
634, S6
637, S6
640, S6
643, S6
646, S6

*SURFACE, NAME = UP_31, TYPE=ELEMENT
655, S3
656, S3
657, S3
664, S3
665, S3
666, S3
673, S3
674, S3
675, S3

*SURFACE, NAME = RIGHT_31, TYPE=ELEMENT
651, S4
654, S4
657, S4
660, S4
663, S4
666, S4
669, S4
672, S4
675, S4

*SURFACE, NAME = UP_32, TYPE=ELEMENT
682, S3
683, S3
684, S3
691, S3
692, S3
693, S3
700, S3
701, S3
702, S3

*SURFACE, NAME = RIGHT_32, TYPE=ELEMENT
678, S4
681, S4
684, S4
687, S4
690, S4
693, S4
696, S4
699, S4
702, S4

*SURFACE, NAME = UP_33, TYPE=ELEMENT
709, S3
710, S3
711, S3
718, S3
719, S3
720, S3
727, S3
728, S3
729, S3

*SURFACE, NAME = RIGHT_33, TYPE=ELEMENT
705, S4
708, S4
711, S4
714, S4
717, S4
720, S4
723, S4
726, S4
729, S4

*SURFACE, NAME = UP_34, TYPE=ELEMENT
736, S3
737, S3
738, S3
745, S3
746, S3
747, S3
754, S3
755, S3
756, S3

*SURFACE, NAME = RIGHT_34, TYPE=ELEMENT
732, S4
735, S4
738, S4
741, S4
744, S4
747, S4
750, S4
753, S4
756, S4

*SURFACE, NAME = UP_35, TYPE=ELEMENT
763, S3
764, S3
765, S3
772, S3
773, S3
774, S3
781, S3
782, S3
783, S3

*SURFACE, NAME = RIGHT_35, TYPE=ELEMENT
759, S4
762, S4
765, S4
768, S4
771, S4
774, S4
777, S4
780, S4
783, S4

*SURFACE, NAME = UP_36, TYPE=ELEMENT
790, S3
791, S3
792, S3
799, S3
800, S3
801, S3
808, S3
809, S3
810, S3

*SURFACE, NAME = RIGHT_36, TYPE=ELEMENT
786, S4
789, S4
792, S4
795, S4
798, S4
801, S4
804, S4
807, S4
810, S4

*SURFACE, NAME = UP_37, TYPE=ELEMENT
817, S3
818, S3
819, S3
826, S3
827, S3
828, S3
835, S3
836, S3
837, S3

*SURFACE, NAME = RIGHT_37, TYPE=ELEMENT
813, S4
816, S4
819, S4
822, S4
825, S4
828, S4
831, S4
834, S4
837, S4

*SURFACE, NAME = UP_38, TYPE=ELEMENT
844, S3
845, S3
846, S3
853, S3
854, S3
855, S3
862, S3
863, S3
864, S3

*SURFACE, NAME = RIGHT_38, TYPE=ELEMENT
840, S4
843, S4
846, S4
849, S4
852, S4
855, S4
858, S4
861, S4
864, S4

*SURFACE, NAME = UP_41, TYPE=ELEMENT
871, S3
872, S3
873, S3
880, S3
881, S3
882, S3
889, S3
890, S3
891, S3

*SURFACE, NAME = LEFT_41, TYPE=ELEMENT
865, S6
868, S6
871, S6
874, S6
877, S6
880, S6
883, S6
886, S6
889, S6

*SURFACE, NAME = RIGHT_41, TYPE=ELEMENT
867, S4
870, S4
873, S4
876, S4
879, S4
882, S4
885, S4
888, S4
891, S4

*SURFACE, NAME = UP_42, TYPE=ELEMENT
898, S3
899, S3
900, S3
907, S3
908, S3
909, S3
916, S3
917, S3
918, S3

*SURFACE, NAME = LEFT_42, TYPE=ELEMENT
892, S6
895, S6
898, S6
901, S6
904, S6
907, S6
910, S6
913, S6
916, S6

*SURFACE, NAME = RIGHT_42, TYPE=ELEMENT
894, S4
897, S4
900, S4
903, S4
906, S4
909, S4
912, S4
915, S4
918, S4

*SURFACE, NAME = UP_43, TYPE=ELEMENT
925, S3
926, S3
927, S3
934, S3
935, S3
936, S3
943, S3
944, S3
945, S3

*SURFACE, NAME = LEFT_43, TYPE=ELEMENT
919, S6
922, S6
925, S6
928, S6
931, S6
934, S6
937, S6
940, S6
943, S6

*SURFACE, NAME = RIGHT_43, TYPE=ELEMENT
921, S4
924, S4
927, S4
930, S4
933, S4
936, S4
939, S4
942, S4
945, S4

*SURFACE, NAME = UP_44, TYPE=ELEMENT
952, S3
953, S3
954, S3
961, S3
962, S3
963, S3
970, S3
971, S3
972, S3

*SURFACE, NAME = LEFT_44, TYPE=ELEMENT
946, S6
949, S6
952, S6
955, S6
958, S6
961, S6
964, S6
967, S6
970, S6

*SURFACE, NAME = RIGHT_44, TYPE=ELEMENT
948, S4
951, S4
954, S4
957, S4
960, S4
963, S4
966, S4
969, S4
972, S4

*SURFACE, NAME = UP_45, TYPE=ELEMENT
979, S3
980, S3
981, S3
988, S3
989, S3
990, S3
997, S3
998, S3
999, S3

*SURFACE, NAME = LEFT_45, TYPE=ELEMENT
973, S6
976, S6
979, S6
982, S6
985, S6
988, S6
991, S6
994, S6
997, S6

*SURFACE, NAME = RIGHT_45, TYPE=ELEMENT
975, S4
978, S4
981, S4
984, S4
987, S4
990, S4
993, S4
996, S4
999, S4

*SURFACE, NAME = UP_46, TYPE=ELEMENT
1006, S3
1007, S3
1008, S3
1015, S3
1016, S3
1017, S3
1024, S3
1025, S3
1026, S3

*SURFACE, NAME = LEFT_46, TYPE=ELEMENT
1000, S6
1003, S6
1006, S6
1009, S6
1012, S6
1015, S6
1018, S6
1021, S6
1024, S6

*SURFACE, NAME = RIGHT_46, TYPE=ELEMENT
1002, S4
1005, S4
1008, S4
1011, S4
1014, S4
1017, S4
1020, S4
1023, S4
1026, S4

*SURFACE, NAME = UP_47, TYPE=ELEMENT
1033, S3
1034, S3
1035, S3
1042, S3
1043, S3
1044, S3
1051, S3
1052, S3
1053, S3

*SURFACE, NAME = LEFT_47, TYPE=ELEMENT
1027, S6
1030, S6
1033, S6
1036, S6
1039, S6
1042, S6
1045, S6
1048, S6
1051, S6

*SURFACE, NAME = RIGHT_47, TYPE=ELEMENT
1029, S4
1032, S4
1035, S4
1038, S4
1041, S4
1044, S4
1047, S4
1050, S4
1053, S4

*SURFACE, NAME = UP_48, TYPE=ELEMENT
1060, S3
1061, S3
1062, S3
1069, S3
1070, S3
1071, S3
1078, S3
1079, S3
1080, S3

*SURFACE, NAME = LEFT_48, TYPE=ELEMENT
1054, S6
1057, S6
1060, S6
1063, S6
1066, S6
1069, S6
1072, S6
1075, S6
1078, S6

*SURFACE, NAME = RIGHT_48, TYPE=ELEMENT
1056, S4
1059, S4
1062, S4
1065, S4
1068, S4
1071, S4
1074, S4
1077, S4
1080, S4

*SURFACE, NAME = UP_51, TYPE=ELEMENT
1087, S3
1088, S3
1089, S3
1096, S3
1097, S3
1098, S3
1105, S3
1106, S3
1107, S3

*SURFACE, NAME = RIGHT_51, TYPE=ELEMENT
1083, S4
1086, S4
1089, S4
1092, S4
1095, S4
1098, S4
1101, S4
1104, S4
1107, S4

*SURFACE, NAME = UP_52, TYPE=ELEMENT
1114, S3
1115, S3
1116, S3
1123, S3
1124, S3
1125, S3
1132, S3
1133, S3
1134, S3

*SURFACE, NAME = RIGHT_52, TYPE=ELEMENT
1110, S4
1113, S4
1116, S4
1119, S4
1122, S4
1125, S4
1128, S4
1131, S4
1134, S4

*SURFACE, NAME = UP_53, TYPE=ELEMENT
1141, S3
1142, S3
1143, S3
1150, S3
1151, S3
1152, S3
1159, S3
1160, S3
1161, S3

*SURFACE, NAME = RIGHT_53, TYPE=ELEMENT
1137, S4
1140, S4
1143, S4
1146, S4
1149, S4
1152, S4
1155, S4
1158, S4
1161, S4

*SURFACE, NAME = UP_54, TYPE=ELEMENT
1168, S3
1169, S3
1170, S3
1177, S3
1178, S3
1179, S3
1186, S3
1187, S3
1188, S3

*SURFACE, NAME = RIGHT_54, TYPE=ELEMENT
1164, S4
1167, S4
1170, S4
1173, S4
1176, S4
1179, S4
1182, S4
1185, S4
1188, S4

*SURFACE, NAME = UP_55, TYPE=ELEMENT
1195, S3
1196, S3
1197, S3
1204, S3
1205, S3
1206, S3
1213, S3
1214, S3
1215, S3

*SURFACE, NAME = RIGHT_55, TYPE=ELEMENT
1191, S4
1194, S4
1197, S4
1200, S4
1203, S4
1206, S4
1209, S4
1212, S4
1215, S4

*SURFACE, NAME = UP_56, TYPE=ELEMENT
1222, S3
1223, S3
1224, S3
1231, S3
1232, S3
1233, S3
1240, S3
1241, S3
1242, S3

*SURFACE, NAME = RIGHT_56, TYPE=ELEMENT
1218, S4
1221, S4
1224, S4
1227, S4
1230, S4
1233, S4
1236, S4
1239, S4
1242, S4

*SURFACE, NAME = UP_57, TYPE=ELEMENT
1249, S3
1250, S3
1251, S3
1258, S3
1259, S3
1260, S3
1267, S3
1268, S3
1269, S3

*SURFACE, NAME = RIGHT_57, TYPE=ELEMENT
1245, S4
1248, S4
1251, S4
1254, S4
1257, S4
1260, S4
1263, S4
1266, S4
1269, S4

*SURFACE, NAME = UP_58, TYPE=ELEMENT
1276, S3
1277, S3
1278, S3
1285, S3
1286, S3
1287, S3
1294, S3
1295, S3
1296, S3

*SURFACE, NAME = RIGHT_58, TYPE=ELEMENT
1272, S4
1275, S4
1278, S4
1281, S4
1284, S4
1287, S4
1290, S4
1293, S4
1296, S4

*SURFACE, NAME = UP_61, TYPE=ELEMENT
1303, S3
1304, S3
1305, S3
1312, S3
1313, S3
1314, S3
1321, S3
1322, S3
1323, S3

*SURFACE, NAME = LEFT_61, TYPE=ELEMENT
1297, S6
1300, S6
1303, S6
1306, S6
1309, S6
1312, S6
1315, S6
1318, S6
1321, S6

*SURFACE, NAME = UP_62, TYPE=ELEMENT
1330, S3
1331, S3
1332, S3
1339, S3
1340, S3
1341, S3
1348, S3
1349, S3
1350, S3

*SURFACE, NAME = LEFT_62, TYPE=ELEMENT
1324, S6
1327, S6
1330, S6
1333, S6
1336, S6
1339, S6
1342, S6
1345, S6
1348, S6

*SURFACE, NAME = UP_63, TYPE=ELEMENT
1357, S3
1358, S3
1359, S3
1366, S3
1367, S3
1368, S3
1375, S3
1376, S3
1377, S3

*SURFACE, NAME = LEFT_63, TYPE=ELEMENT
1351, S6
1354, S6
1357, S6
1360, S6
1363, S6
1366, S6
1369, S6
1372, S6
1375, S6

*SURFACE, NAME = UP_64, TYPE=ELEMENT
1384, S3
1385, S3
1386, S3
1393, S3
1394, S3
1395, S3
1402, S3
1403, S3
1404, S3

*SURFACE, NAME = LEFT_64, TYPE=ELEMENT
1378, S6
1381, S6
1384, S6
1387, S6
1390, S6
1393, S6
1396, S6
1399, S6
1402, S6

*SURFACE, NAME = UP_65, TYPE=ELEMENT
1411, S3
1412, S3
1413, S3
1420, S3
1421, S3
1422, S3
1429, S3
1430, S3
1431, S3

*SURFACE, NAME = LEFT_65, TYPE=ELEMENT
1405, S6
1408, S6
1411, S6
1414, S6
1417, S6
1420, S6
1423, S6
1426, S6
1429, S6

*SURFACE, NAME = UP_66, TYPE=ELEMENT
1438, S3
1439, S3
1440, S3
1447, S3
1448, S3
1449, S3
1456, S3
1457, S3
1458, S3

*SURFACE, NAME = LEFT_66, TYPE=ELEMENT
1432, S6
1435, S6
1438, S6
1441, S6
1444, S6
1447, S6
1450, S6
1453, S6
1456, S6

*SURFACE, NAME = UP_67, TYPE=ELEMENT
1465, S3
1466, S3
1467, S3
1474, S3
1475, S3
1476, S3
1483, S3
1484, S3
1485, S3

*SURFACE, NAME = LEFT_67, TYPE=ELEMENT
1459, S6
1462, S6
1465, S6
1468, S6
1471, S6
1474, S6
1477, S6
1480, S6
1483, S6

*SURFACE, NAME = UP_68, TYPE=ELEMENT
1492, S3
1493, S3
1494, S3
1501, S3
1502, S3
1503, S3
1510, S3
1511, S3
1512, S3

*SURFACE, NAME = LEFT_68, TYPE=ELEMENT
1486, S6
1489, S6
1492, S6
1495, S6
1498, S6
1501, S6
1504, S6
1507, S6
1510, S6

*SURFACE, NAME = UP_71, TYPE=ELEMENT
1519, S3
1520, S3
1521, S3
1528, S3
1529, S3
1530, S3
1537, S3
1538, S3
1539, S3

*SURFACE, NAME = RIGHT_71, TYPE=ELEMENT
1515, S4
1518, S4
1521, S4
1524, S4
1527, S4
1530, S4
1533, S4
1536, S4
1539, S4

*SURFACE, NAME = UP_72, TYPE=ELEMENT
1546, S3
1547, S3
1548, S3
1555, S3
1556, S3
1557, S3
1564, S3
1565, S3
1566, S3

*SURFACE, NAME = RIGHT_72, TYPE=ELEMENT
1542, S4
1545, S4
1548, S4
1551, S4
1554, S4
1557, S4
1560, S4
1563, S4
1566, S4

*SURFACE, NAME = UP_73, TYPE=ELEMENT
1573, S3
1574, S3
1575, S3
1582, S3
1583, S3
1584, S3
1591, S3
1592, S3
1593, S3

*SURFACE, NAME = RIGHT_73, TYPE=ELEMENT
1569, S4
1572, S4
1575, S4
1578, S4
1581, S4
1584, S4
1587, S4
1590, S4
1593, S4

*SURFACE, NAME = UP_74, TYPE=ELEMENT
1600, S3
1601, S3
1602, S3
1609, S3
1610, S3
1611, S3
1618, S3
1619, S3
1620, S3

*SURFACE, NAME = RIGHT_74, TYPE=ELEMENT
1596, S4
1599, S4
1602, S4
1605, S4
1608, S4
1611, S4
1614, S4
1617, S4
1620, S4

*SURFACE, NAME = UP_75, TYPE=ELEMENT
1627, S3
1628, S3
1629, S3
1636, S3
1637, S3
1638, S3
1645, S3
1646, S3
1647, S3

*SURFACE, NAME = RIGHT_75, TYPE=ELEMENT
1623, S4
1626, S4
1629, S4
1632, S4
1635, S4
1638, S4
1641, S4
1644, S4
1647, S4

*SURFACE, NAME = UP_76, TYPE=ELEMENT
1654, S3
1655, S3
1656, S3
1663, S3
1664, S3
1665, S3
1672, S3
1673, S3
1674, S3

*SURFACE, NAME = RIGHT_76, TYPE=ELEMENT
1650, S4
1653, S4
1656, S4
1659, S4
1662, S4
1665, S4
1668, S4
1671, S4
1674, S4

*SURFACE, NAME = UP_77, TYPE=ELEMENT
1681, S3
1682, S3
1683, S3
1690, S3
1691, S3
1692, S3
1699, S3
1700, S3
1701, S3

*SURFACE, NAME = RIGHT_77, TYPE=ELEMENT
1677, S4
1680, S4
1683, S4
1686, S4
1689, S4
1692, S4
1695, S4
1698, S4
1701, S4

*SURFACE, NAME = UP_78, TYPE=ELEMENT
1708, S3
1709, S3
1710, S3
1717, S3
1718, S3
1719, S3
1726, S3
1727, S3
1728, S3

*SURFACE, NAME = RIGHT_78, TYPE=ELEMENT
1704, S4
1707, S4
1710, S4
1713, S4
1716, S4
1719, S4
1722, S4
1725, S4
1728, S4

*INITIAL CONDITIONS, TYPE = TEMPERATURE
ALLNODES, 200.
**INITIAL CONDITIONS, TYPE = TEMPERATURE
**BUILD_PLATE, 60.
*NSET, NSET = N2
2
*SURFACE, NAME = FREE_SURFACE, TYPE = ELEMENT
ALLELEMENTS,
*STEP,NAME = STEP_0, INC= 20000, NLGEOM = YES
*COUPLED TEMPERATURE-DISPLACEMENT, DELTMX = 10., CETOL= 1e-3
0.01, 3.0, 1e-9, 3.0
**SOLUTION TECHNIQUE, TYPE = SEPARATED
*BOUNDARY, TYPE = DISPLACEMENT
BUILD_PLATE, 1, 1 
BUILD_PLATE, 2, 2 
BUILD_PLATE, 3, 3 
**BUILD_PLATE,11,11, 210
*MODEL CHANGE, REMOVE
E_STEP_1,
E_STEP_2,
E_STEP_3,
E_STEP_4,
E_STEP_5,
E_STEP_6,
E_STEP_7,
E_STEP_8,
E_STEP_11,
E_STEP_12,
E_STEP_13,
E_STEP_14,
E_STEP_15,
E_STEP_16,
E_STEP_17,
E_STEP_18,
E_STEP_21,
E_STEP_22,
E_STEP_23,
E_STEP_24,
** ... 44 like lines cut
*SFILM
UP_1, F, 20, 67
LEFT_1, F, 20, 67
RIGHT_1, F, 20, 67
UP_2, F, 20, 67
LEFT_2, F, 20, 67
RIGHT_2, F, 20, 67
UP_3, F, 20, 67
LEFT_3, F, 20, 67
RIGHT_3, F, 20, 67
UP_4, F, 20, 67
LEFT_4, F, 20, 67
RIGHT_4, F, 20, 67
UP_5, F, 20, 67
LEFT_5, F, 20, 67
RIGHT_5, F, 20, 67
UP_6, F, 20, 67
LEFT_6, F, 20, 67
RIGHT_6, F, 20, 67
UP_7, F, 20, 67
LEFT_7, F, 20, 67
RIGHT_7, F, 20, 67
UP_8, F, 20, 67
LEFT_8, F, 20, 67
RIGHT_8, F, 20, 67
UP_11, F, 20, 67
RIGHT_11, F, 20, 67
UP_12, F, 20, 67
RIGHT_12, F, 20, 67
UP_13, F, 20, 67
RIGHT_13, F, 20, 67
UP_14, F, 20, 67
RIGHT_14, F, 20, 67
UP_15, F, 20, 67
RIGHT_15, F, 20, 67
UP_16, F, 20, 67
RIGHT_16, F, 20, 67
UP_17, F, 20, 67
RIGHT_17, F, 20, 67
UP_18, F, 20, 67
RIGHT_18, F, 20, 67
UP_21, F, 20, 67
LEFT_21, F, 20, 67
UP_22, F, 20, 67
LEFT_22, F, 20, 67
UP_23, F, 20, 67
LEFT_23, F, 20, 67
UP_24, F, 20, 67
LEFT_24, F, 20, 67
UP_25, F, 20, 67
LEFT_25, F, 20, 67
UP_26, F, 20, 67
LEFT_26, F, 20, 67
UP_27, F, 20, 67
LEFT_27, F, 20, 67
UP_28, F, 20, 67
LEFT_28, F, 20, 67
UP_31, F, 20, 67
RIGHT_31, F, 20, 67
UP_32, F, 20, 67
RIGHT_32, F, 20, 67
UP_33, F, 20, 67
RIGHT_33, F, 20, 67
UP_34, F, 20, 67
RIGHT_34, F, 20, 67
UP_35, F, 20, 67
RIGHT_35, F, 20, 67
UP_36, F, 20, 67
RIGHT_36, F, 20, 67
UP_37, F, 20, 67
RIGHT_37, F, 20, 67
UP_38, F, 20, 67
RIGHT_38, F, 20, 67
UP_41, F, 20, 67
LEFT_41, F, 20, 67
RIGHT_41, F, 20, 67
UP_42, F, 20, 67
LEFT_42, F, 20, 67
RIGHT_42, F, 20, 67
UP_43, F, 20, 67
LEFT_43, F, 20, 67
RIGHT_43, F, 20, 67
UP_44, F, 20, 67
LEFT_44, F, 20, 67
RIGHT_44, F, 20, 67
UP_45, F, 20, 67
LEFT_45, F, 20, 67
RIGHT_45, F, 20, 67
UP_46, F, 20, 67
LEFT_46, F, 20, 67
RIGHT_46, F, 20, 67
UP_47, F, 20, 67
LEFT_47, F, 20, 67
RIGHT_47, F, 20, 67
UP_48, F, 20, 67
LEFT_48, F, 20, 67
RIGHT_48, F, 20, 67
UP_51, F, 20, 67
RIGHT_51, F, 20, 67
UP_52, F, 20, 67
RIGHT_52, F, 20, 67
UP_53, F, 20, 67
RIGHT_53, F, 20, 67
UP_54, F, 20, 67
RIGHT_54, F, 20, 67
UP_55, F, 20, 67
RIGHT_55, F, 20, 67
UP_56, F, 20, 67
RIGHT_56, F, 20, 67
UP_57, F, 20, 67
RIGHT_57, F, 20, 67
UP_58, F, 20, 67
RIGHT_58, F, 20, 67
UP_61, F, 20, 67
LEFT_61, F, 20, 67
UP_62, F, 20, 67
LEFT_62, F, 20, 67
UP_63, F, 20, 67
LEFT_63, F, 20, 67
UP_64, F, 20, 67
LEFT_64, F, 20, 67
UP_65, F, 20, 67
LEFT_65, F, 20, 67
UP_66, F, 20, 67
LEFT_66, F, 20, 67
UP_67, F, 20, 67
LEFT_67, F, 20, 67
UP_68, F, 20, 67
LEFT_68, F, 20, 67
UP_71, F, 20, 67
RIGHT_71, F, 20, 67
UP_72, F, 20, 67
RIGHT_72, F, 20, 67
UP_73, F, 20, 67
RIGHT_73, F, 20, 67
UP_74, F, 20, 67
RIGHT_74, F, 20, 67
UP_75, F, 20, 67
RIGHT_75, F, 20, 67
UP_76, F, 20, 67
RIGHT_76, F, 20, 67
UP_77, F, 20, 67
RIGHT_77, F, 20, 67
UP_78, F, 20, 67
RIGHT_78, F, 20, 67
*SFILM
BUILD_SURFACE, F, 60.0, 210
*RESTART, WRITE, FREQUENCY = 0
*OUTPUT, FIELD, VARIABLE = PRESELECT
*OUTPUT, HISTORY, VARIABLE = PRESELECT
*NODE OUTPUT, NSET = N2
U
*END STEP

*STEP,NAME = STEP_1, INC= 20000, NLGEOM = YES
*COUPLED TEMPERATURE-DISPLACEMENT,DELTMX = 10., CETOL= 1e-3
0.01, 0.2999999999999998, 1e-9, 0.2999999999999998
**SOLUTION TECHNIQUE, TYPE = SEPARATED
*BOUNDARY, TYPE = DISPLACEMENT
BUILD_PLATE, 1, 1 
BUILD_PLATE, 2, 2 
BUILD_PLATE, 3, 3 
*MODEL CHANGE, ADD = STRAIN FREE 
E_STEP_1
*RESTART, WRITE, FREQUENCY = 0 
*OUTPUT, FIELD, VARIABLE = PRESELECT, NUMBER INTERVAL = 1
*OUTPUT, HISTORY, VARIABLE = PRESELECT
*NODE OUTPUT, NSET = N2
U
*END STEP

*STEP,NAME = STEP_2, INC= 20000, NLGEOM = YES
*COUPLED TEMPERATURE-DISPLACEMENT,DELTMX = 10., CETOL= 1e-3
0.01, 0.30000000000000027, 1e-9, 0.30000000000000027
**SOLUTION TECHNIQUE, TYPE = SEPARATED
*BOUNDARY, TYPE = DISPLACEMENT
BUILD_PLATE, 1, 1 
BUILD_PLATE, 2, 2 
BUILD_PLATE, 3, 3 
*MODEL CHANGE, ADD = STRAIN FREE 
E_STEP_2
*RESTART, WRITE, FREQUENCY = 0 
*OUTPUT, FIELD, VARIABLE = PRESELECT, NUMBER INTERVAL = 1
*OUTPUT, HISTORY, VARIABLE = PRESELECT
*NODE OUTPUT, NSET = N2
U
*END STEP

*STEP,NAME = STEP_3, INC= 20000, NLGEOM = YES
*COUPLED TEMPERATURE-DISPLACEMENT,DELTMX = 10., CETOL= 1e-3
0.01, 0.30000000000000027, 1e-9, 0.30000000000000027
**SOLUTION TECHNIQUE, TYPE = SEPARATED
*BOUNDARY, TYPE = DISPLACEMENT
BUILD_PLATE, 1, 1 
BUILD_PLATE, 2, 2 
BUILD_PLATE, 3, 3 
*MODEL CHANGE, ADD = STRAIN FREE 
E_STEP_3
*RESTART, WRITE, FREQUENCY = 0 
*OUTPUT, FIELD, VARIABLE = PRESELECT, NUMBER INTERVAL = 1
*OUTPUT, HISTORY, VARIABLE = PRESELECT
*NODE OUTPUT, NSET = N2
U
*END STEP

*STEP,NAME = STEP_4, INC= 20000, NLGEOM = YES
*COUPLED TEMPERATURE-DISPLACEMENT,DELTMX = 10., CETOL= 1e-3
0.01, 0.2999999999999998, 1e-9, 0.2999999999999998
**SOLUTION TECHNIQUE, TYPE = SEPARATED
*BOUNDARY, TYPE = DISPLACEMENT
BUILD_PLATE, 1, 1 
BUILD_PLATE, 2, 2 
BUILD_PLATE, 3, 3 
*MODEL CHANGE, ADD = STRAIN FREE 
E_STEP_4
*RESTART, WRITE, FREQUENCY = 0 
*OUTPUT, FIELD, VARIABLE = PRESELECT, NUMBER INTERVAL = 1
*OUTPUT, HISTORY, VARIABLE = PRESELECT
*NODE OUTPUT, NSET = N2
U
*END STEP

*STEP,NAME = STEP_5, INC= 20000, NLGEOM = YES
*COUPLED TEMPERATURE-DISPLACEMENT,DELTMX = 10., CETOL= 1e-3
0.01, 0.2999999999999998, 1e-9, 0.2999999999999998
**SOLUTION TECHNIQUE, TYPE = SEPARATED
*BOUNDARY, TYPE = DISPLACEMENT
BUILD_PLATE, 1, 1 
BUILD_PLATE, 2, 2 
BUILD_PLATE, 3, 3 
*MODEL CHANGE, ADD = STRAIN FREE 
E_STEP_5
*RESTART, WRITE, FREQUENCY = 0 
*OUTPUT, FIELD, VARIABLE = PRESELECT, NUMBER INTERVAL = 1
*OUTPUT, HISTORY, VARIABLE = PRESELECT
*NODE OUTPUT, NSET = N2
U
*END STEP

*STEP,NAME = STEP_6, INC= 20000, NLGEOM = YES
*COUPLED TEMPERATURE-DISPLACEMENT,DELTMX = 10., CETOL= 1e-3
0.01, 0.3000000000000007, 1e-9, 0.3000000000000007
**SOLUTION TECHNIQUE, TYPE = SEPARATED
*BOUNDARY, TYPE = DISPLACEMENT
BUILD_PLATE, 1, 1 
BUILD_PLATE, 2, 2 
BUILD_PLATE, 3, 3 
*MODEL CHANGE, ADD = STRAIN FREE 
E_STEP_6
*RESTART, WRITE, FREQUENCY = 0 
*OUTPUT, FIELD, VARIABLE = PRESELECT, NUMBER INTERVAL = 1
*OUTPUT, HISTORY, VARIABLE = PRESELECT
*NODE OUTPUT, NSET = N2
U
*END STEP

*STEP,NAME = STEP_7, INC= 20000, NLGEOM = YES
*COUPLED TEMPERATURE-DISPLACEMENT,DELTMX = 10., CETOL= 1e-3
0.01, 0.2999999999999998, 1e-9, 0.2999999999999998
**SOLUTION TECHNIQUE, TYPE = SEPARATED
*BOUNDARY, TYPE = DISPLACEMENT
BUILD_PLATE, 1, 1 
BUILD_PLATE, 2, 2 
BUILD_PLATE, 3, 3 
*MODEL CHANGE, ADD = STRAIN FREE 
E_STEP_7
*RESTART, WRITE, FREQUENCY = 0 
*OUTPUT, FIELD, VARIABLE = PRESELECT, NUMBER INTERVAL = 1
*OUTPUT, HISTORY, VARIABLE = PRESELECT
*NODE OUTPUT, NSET = N2
U
*END STEP

*STEP,NAME = STEP_8, INC= 20000, NLGEOM = YES
*COUPLED TEMPERATURE-DISPLACEMENT,DELTMX = 10., CETOL= 1e-3
0.01, 0.2999999999999998, 1e-9, 0.2999999999999998
**SOLUTION TECHNIQUE, TYPE = SEPARATED
*BOUNDARY, TYPE = DISPLACEMENT
BUILD_PLATE, 1, 1 
BUILD_PLATE, 2, 2 
BUILD_PLATE, 3, 3 
*MODEL CHANGE, ADD = STRAIN FREE 
E_STEP_8
*RESTART, WRITE, FREQUENCY = 0 
*OUTPUT, FIELD, VARIABLE = PRESELECT, NUMBER INTERVAL = 1
*OUTPUT, HISTORY, VARIABLE = PRESELECT
*NODE OUTPUT, NSET = N2
U
*END STEP

*STEP,NAME = STEP_9, INC= 20000, NLGEOM = YES
*COUPLED TEMPERATURE-DISPLACEMENT,DELTMX = 10., CETOL= 1e-3
0.01, 48.49, 1e-9, 48.49
**SOLUTION TECHNIQUE, TYPE = SEPARATED
*BOUNDARY, TYPE = DISPLACEMENT
BUILD_PLATE, 1, 1 
BUILD_PLATE, 2, 2 
BUILD_PLATE, 3, 3 
*RESTART, WRITE, FREQUENCY = 0 
*OUTPUT, FIELD, VARIABLE = PRESELECT, NUMBER INTERVAL = 1
*OUTPUT, HISTORY, VARIABLE = PRESELECT
*NODE OUTPUT, NSET = N2
U
*END STEP

*STEP,NAME = STEP_10, INC= 20000, NLGEOM = YES
*COUPLED TEMPERATURE-DISPLACEMENT,DELTMX = 10., CETOL= 1e-3
0.01, 0.29999999999999716, 1e-9, 0.29999999999999716
**SOLUTION TECHNIQUE, TYPE = SEPARATED
*BOUNDARY, TYPE = DISPLACEMENT
BUILD_PLATE, 1, 1 
BUILD_PLATE, 2, 2 
BUILD_PLATE, 3, 3 
*RESTART, WRITE, FREQUENCY = 0 
*OUTPUT, FIELD, VARIABLE = PRESELECT, NUMBER INTERVAL = 1
*OUTPUT, HISTORY, VARIABLE = PRESELECT
*NODE OUTPUT, NSET = N2
U
*END STEP

*STEP,NAME = STEP_11, INC= 20000, NLGEOM = YES
*COUPLED TEMPERATURE-DISPLACEMENT,DELTMX = 10., CETOL= 1e-3
0.01, 0.29999999999999716, 1e-9, 0.29999999999999716
**SOLUTION TECHNIQUE, TYPE = SEPARATED
*BOUNDARY, TYPE = DISPLACEMENT
BUILD_PLATE, 1, 1 
BUILD_PLATE, 2, 2 
BUILD_PLATE, 3, 3 
*MODEL CHANGE, ADD = STRAIN FREE 
E_STEP_11
*SFILM
LEFT_8, F, 20, 0.0
*SRADIATE
LEFT_8, R, 20, 0.0
*RESTART, WRITE, FREQUENCY = 0 
*OUTPUT, FIELD, VARIABLE = PRESELECT, NUMBER INTERVAL = 1
*OUTPUT, HISTORY, VARIABLE = PRESELECT
*NODE OUTPUT, NSET = N2
U
*END STEP

*STEP,NAME = STEP_12, INC= 20000, NLGEOM = YES
*COUPLED TEMPERATURE-DISPLACEMENT,DELTMX = 10., CETOL= 1e-3
0.01, 0.30000000000000426, 1e-9, 0.30000000000000426
**SOLUTION TECHNIQUE, TYPE = SEPARATED
*BOUNDARY, TYPE = DISPLACEMENT
BUILD_PLATE, 1, 1 
BUILD_PLATE, 2, 2 
BUILD_PLATE, 3, 3 
*MODEL CHANGE, ADD = STRAIN FREE 
E_STEP_12
*SFILM
LEFT_7, F, 20, 0.0
*SRADIATE
LEFT_7, R, 20, 0.0
*RESTART, WRITE, FREQUENCY = 0 
*OUTPUT, FIELD, VARIABLE = PRESELECT, NUMBER INTERVAL = 1
*OUTPUT, HISTORY, VARIABLE = PRESELECT
*NODE OUTPUT, NSET = N2
U
*END STEP

*STEP,NAME = STEP_13, INC= 20000, NLGEOM = YES
*COUPLED TEMPERATURE-DISPLACEMENT,DELTMX = 10., CETOL= 1e-3
0.01, 0.29999999999999716, 1e-9, 0.29999999999999716
**SOLUTION TECHNIQUE, TYPE = SEPARATED
*BOUNDARY, TYPE = DISPLACEMENT
BUILD_PLATE, 1, 1 
BUILD_PLATE, 2, 2 
BUILD_PLATE, 3, 3 
*MODEL CHANGE, ADD = STRAIN FREE 
E_STEP_13
*SFILM
LEFT_6, F, 20, 0.0
*SRADIATE
LEFT_6, R, 20, 0.0
*RESTART, WRITE, FREQUENCY = 0 
*OUTPUT, FIELD, VARIABLE = PRESELECT, NUMBER INTERVAL = 1
*OUTPUT, HISTORY, VARIABLE = PRESELECT
*NODE OUTPUT, NSET = N2
U
*END STEP

*STEP,NAME = STEP_14, INC= 20000, NLGEOM = YES
*COUPLED TEMPERATURE-DISPLACEMENT,DELTMX = 10., CETOL= 1e-3
0.01, 0.30000000000000426, 1e-9, 0.30000000000000426
**SOLUTION TECHNIQUE, TYPE = SEPARATED
*BOUNDARY, TYPE = DISPLACEMENT
BUILD_PLATE, 1, 1 
BUILD_PLATE, 2, 2 
BUILD_PLATE, 3, 3 
*MODEL CHANGE, ADD = STRAIN FREE 
E_STEP_14
*SFILM
LEFT_5, F, 20, 0.0
*SRADIATE
LEFT_5, R, 20, 0.0
*RESTART, WRITE, FREQUENCY = 0 
*OUTPUT, FIELD, VARIABLE = PRESELECT, NUMBER INTERVAL = 1
*OUTPUT, HISTORY, VARIABLE = PRESELECT
*NODE OUTPUT, NSET = N2
U
*END STEP

*STEP,NAME = STEP_15, INC= 20000, NLGEOM = YES
*COUPLED TEMPERATURE-DISPLACEMENT,DELTMX = 10., CETOL= 1e-3
0.01, 0.29999999999999716, 1e-9, 0.29999999999999716
**SOLUTION TECHNIQUE, TYPE = SEPARATED
*BOUNDARY, TYPE = DISPLACEMENT
BUILD_PLATE, 1, 1 
BUILD_PLATE, 2, 2 
BUILD_PLATE, 3, 3 
*MODEL CHANGE, ADD = STRAIN FREE 
E_STEP_15
*SFILM
LEFT_4, F, 20, 0.0
*SRADIATE
LEFT_4, R, 20, 0.0
*RESTART, WRITE, FREQUENCY = 0 
*OUTPUT, FIELD, VARIABLE = PRESELECT, NUMBER INTERVAL = 1
*OUTPUT, HISTORY, VARIABLE = PRESELECT
*NODE OUTPUT, NSET = N2
U
*END STEP

*STEP,NAME = STEP_16, INC= 20000, NLGEOM = YES
*COUPLED TEMPERATURE-DISPLACEMENT,DELTMX = 10., CETOL= 1e-3
0.01, 0.29999999999999716, 1e-9, 0.29999999999999716
**SOLUTION TECHNIQUE, TYPE = SEPARATED
*BOUNDARY, TYPE = DISPLACEMENT
BUILD_PLATE, 1, 1 
BUILD_PLATE, 2, 2 
BUILD_PLATE, 3, 3 
*MODEL CHANGE, ADD = STRAIN FREE 
E_STEP_16
*SFILM
LEFT_3, F, 20, 0.0
*SRADIATE
LEFT_3, R, 20, 0.0
*RESTART, WRITE, FREQUENCY = 0 
*OUTPUT, FIELD, VARIABLE = PRESELECT, NUMBER INTERVAL = 1
*OUTPUT, HISTORY, VARIABLE = PRESELECT
*NODE OUTPUT, NSET = N2
U
*END STEP

*STEP,NAME = STEP_17, INC= 20000, NLGEOM = YES
*COUPLED TEMPERATURE-DISPLACEMENT,DELTMX = 10., CETOL= 1e-3
0.01, 0.30000000000000426, 1e-9, 0.30000000000000426
**SOLUTION TECHNIQUE, TYPE = SEPARATED
*BOUNDARY, TYPE = DISPLACEMENT
BUILD_PLATE, 1, 1 
BUILD_PLATE, 2, 2 
BUILD_PLATE, 3, 3 
*MODEL CHANGE, ADD = STRAIN FREE 
E_STEP_17
*SFILM
LEFT_2, F, 20, 0.0
*SRADIATE
LEFT_2, R, 20, 0.0
*RESTART, WRITE, FREQUENCY = 0 
*OUTPUT, FIELD, VARIABLE = PRESELECT, NUMBER INTERVAL = 1
*OUTPUT, HISTORY, VARIABLE = PRESELECT
*NODE OUTPUT, NSET = N2
U
*END STEP

*STEP,NAME = STEP_18, INC= 20000, NLGEOM = YES
*COUPLED TEMPERATURE-DISPLACEMENT,DELTMX = 10., CETOL= 1e-3
0.01, 0.29999999999999716, 1e-9, 0.29999999999999716
**SOLUTION TECHNIQUE, TYPE = SEPARATED
*BOUNDARY, TYPE = DISPLACEMENT
BUILD_PLATE, 1, 1 
BUILD_PLATE, 2, 2 
BUILD_PLATE, 3, 3 
*MODEL CHANGE, ADD = STRAIN FREE 
E_STEP_18
*SFILM
LEFT_1, F, 20, 0.0
*SRADIATE
LEFT_1, R, 20, 0.0
*RESTART, WRITE, FREQUENCY = 0 
*OUTPUT, FIELD, VARIABLE = PRESELECT, NUMBER INTERVAL = 1
*OUTPUT, HISTORY, VARIABLE = PRESELECT
*NODE OUTPUT, NSET = N2
U
*END STEP

*STEP,NAME = STEP_19, INC= 20000, NLGEOM = YES
*COUPLED TEMPERATURE-DISPLACEMENT,DELTMX = 10., CETOL= 1e-3
0.01, 48.49, 1e-9, 48.49
**SOLUTION TECHNIQUE, TYPE = SEPARATED
*BOUNDARY, TYPE = DISPLACEMENT
BUILD_PLATE, 1, 1 
BUILD_PLATE, 2, 2 
BUILD_PLATE, 3, 3 
*RESTART, WRITE, FREQUENCY = 0 
*OUTPUT, FIELD, VARIABLE = PRESELECT, NUMBER INTERVAL = 1
*OUTPUT, HISTORY, VARIABLE = PRESELECT
*NODE OUTPUT, NSET = N2
U
*END STEP

*STEP,NAME = STEP_20, INC= 20000, NLGEOM = YES
*COUPLED TEMPERATURE-DISPLACEMENT,DELTMX = 10., CETOL= 1e-3
0.01, 0.29999999999999716, 1e-9, 0.29999999999999716
**SOLUTION TECHNIQUE, TYPE = SEPARATED
*BOUNDARY, TYPE = DISPLACEMENT
BUILD_PLATE, 1, 1 
BUILD_PLATE, 2, 2 
BUILD_PLATE, 3, 3 
*RESTART, WRITE, FREQUENCY = 0 
*OUTPUT, FIELD, VARIABLE = PRESELECT, NUMBER INTERVAL = 1
*OUTPUT, HISTORY, VARIABLE = PRESELECT
*NODE OUTPUT, NSET = N2
U
*END STEP

*STEP,NAME = STEP_21, INC= 20000, NLGEOM = YES
*COUPLED TEMPERATURE-DISPLACEMENT,DELTMX = 10., CETOL= 1e-3
0.01, 0.29999999999999716, 1e-9, 0.29999999999999716
**SOLUTION TECHNIQUE, TYPE = SEPARATED
*BOUNDARY, TYPE = DISPLACEMENT
BUILD_PLATE, 1, 1 
BUILD_PLATE, 2, 2 
BUILD_PLATE, 3, 3 
*MODEL CHANGE, ADD = STRAIN FREE 
E_STEP_21
*SFILM
RIGHT_18, F, 20, 0.0
*SRADIATE
RIGHT_18, R, 20, 0.0
*RESTART, WRITE, FREQUENCY = 0 
*OUTPUT, FIELD, VARIABLE = PRESELECT, NUMBER INTERVAL = 1
*OUTPUT, HISTORY, VARIABLE = PRESELECT
*NODE OUTPUT, NSET = N2
U
*END STEP

*STEP,NAME = STEP_22, INC= 20000, NLGEOM = YES
*COUPLED TEMPERATURE-DISPLACEMENT,DELTMX = 10., CETOL= 1e-3
0.01, 0.29999999999999716, 1e-9, 0.29999999999999716
**SOLUTION TECHNIQUE, TYPE = SEPARATED
*BOUNDARY, TYPE = DISPLACEMENT
BUILD_PLATE, 1, 1 
BUILD_PLATE, 2, 2 
BUILD_PLATE, 3, 3 
*MODEL CHANGE, ADD = STRAIN FREE 
E_STEP_22
*SFILM
RIGHT_17, F, 20, 0.0
*SRADIATE
RIGHT_17, R, 20, 0.0
*RESTART, WRITE, FREQUENCY = 0 
*OUTPUT, FIELD, VARIABLE = PRESELECT, NUMBER INTERVAL = 1
*OUTPUT, HISTORY, VARIABLE = PRESELECT
*NODE OUTPUT, NSET = N2
U
*END STEP

*STEP,NAME = STEP_23, INC= 20000, NLGEOM = YES
*COUPLED TEMPERATURE-DISPLACEMENT,DELTMX = 10., CETOL= 1e-3
0.01, 0.30000000000001137, 1e-9, 0.30000000000001137
**SOLUTION TECHNIQUE, TYPE = SEPARATED
*BOUNDARY, TYPE = DISPLACEMENT
BUILD_PLATE, 1, 1 
BUILD_PLATE, 2, 2 
BUILD_PLATE, 3, 3 
*MODEL CHANGE, ADD = STRAIN FREE 
E_STEP_23
*SFILM
RIGHT_16, F, 20, 0.0
*SRADIATE
RIGHT_16, R, 20, 0.0
*RESTART, WRITE, FREQUENCY = 0 
*OUTPUT, FIELD, VARIABLE = PRESELECT, NUMBER INTERVAL = 1
*OUTPUT, HISTORY, VARIABLE = PRESELECT
*NODE OUTPUT, NSET = N2
U
*END STEP

*STEP,NAME = STEP_24, INC= 20000, NLGEOM = YES
*COUPLED TEMPERATURE-DISPLACEMENT,DELTMX = 10., CETOL= 1e-3
0.01, 0.29999999999999716, 1e-9, 0.29999999999999716
**SOLUTION TECHNIQUE, TYPE = SEPARATED
*BOUNDARY, TYPE = DISPLACEMENT
BUILD_PLATE, 1, 1 
BUILD_PLATE, 2, 2 
BUILD_PLATE, 3, 3 
*MODEL CHANGE, ADD = STRAIN FREE 
E_STEP_24
*SFILM
RIGHT_15, F, 20, 0.0
*SRADIATE
RIGHT_15, R, 20, 0.0
*RESTART, WRITE, FREQUENCY = 0 
*OUTPUT, FIELD, VARIABLE = PRESELECT, NUMBER INTERVAL = 1
*OUTPUT, HISTORY, VARIABLE = PRESELECT
*NODE OUTPUT, NSET = N2
U
*END STEP

*STEP,NAME = STEP_25, INC= 20000, NLGEOM = YES
*COUPLED TEMPERATURE-DISPLACEMENT,DELTMX = 10., CETOL= 1e-3
0.01, 0.29999999999999716, 1e-9, 0.29999999999999716
**SOLUTION TECHNIQUE, TYPE = SEPARATED
*BOUNDARY, TYPE = DISPLACEMENT
BUILD_PLATE, 1, 1 
BUILD_PLATE, 2, 2 
BUILD_PLATE, 3, 3 
*MODEL CHANGE, ADD = STRAIN FREE 
E_STEP_25
*SFILM
RIGHT_14, F, 20, 0.0
*SRADIATE
RIGHT_14, R, 20, 0.0
*RESTART, WRITE, FREQUENCY = 0 
*OUTPUT, FIELD, VARIABLE = PRESELECT, NUMBER INTERVAL = 1
*OUTPUT, HISTORY, VARIABLE = PRESELECT
*NODE OUTPUT, NSET = N2
U
*END STEP

*STEP,NAME = STEP_26, INC= 20000, NLGEOM = YES
*COUPLED TEMPERATURE-DISPLACEMENT,DELTMX = 10., CETOL= 1e-3
0.01, 0.30000000000001137, 1e-9, 0.30000000000001137
**SOLUTION TECHNIQUE, TYPE = SEPARATED
*BOUNDARY, TYPE = DISPLACEMENT
BUILD_PLATE, 1, 1 
BUILD_PLATE, 2, 2 
BUILD_PLATE, 3, 3 
*MODEL CHANGE, ADD = STRAIN FREE 
E_STEP_26
*SFILM
RIGHT_13, F, 20, 0.0
*SRADIATE
RIGHT_13, R, 20, 0.0
*RESTART, WRITE, FREQUENCY = 0 
*OUTPUT, FIELD, VARIABLE = PRESELECT, NUMBER INTERVAL = 1
*OUTPUT, HISTORY, VARIABLE = PRESELECT
*NODE OUTPUT, NSET = N2
U
*END STEP

*STEP,NAME = STEP_27, INC= 20000, NLGEOM = YES
*COUPLED TEMPERATURE-DISPLACEMENT,DELTMX = 10., CETOL= 1e-3
0.01, 0.29999999999999716, 1e-9, 0.29999999999999716
**SOLUTION TECHNIQUE, TYPE = SEPARATED
*BOUNDARY, TYPE = DISPLACEMENT
BUILD_PLATE, 1, 1 
BUILD_PLATE, 2, 2 
BUILD_PLATE, 3, 3 
*MODEL CHANGE, ADD = STRAIN FREE 
E_STEP_27
*SFILM
RIGHT_12, F, 20, 0.0
*SRADIATE
RIGHT_12, R, 20, 0.0
*RESTART, WRITE, FREQUENCY = 0 
*OUTPUT, FIELD, VARIABLE = PRESELECT, NUMBER INTERVAL = 1
*OUTPUT, HISTORY, VARIABLE = PRESELECT
*NODE OUTPUT, NSET = N2
U
*END STEP

*STEP,NAME = STEP_28, INC= 20000, NLGEOM = YES
*COUPLED TEMPERATURE-DISPLACEMENT,DELTMX = 10., CETOL= 1e-3
0.01, 0.29999999999999716, 1e-9, 0.29999999999999716
**SOLUTION TECHNIQUE, TYPE = SEPARATED
*BOUNDARY, TYPE = DISPLACEMENT
BUILD_PLATE, 1, 1 
BUILD_PLATE, 2, 2 
BUILD_PLATE, 3, 3 
*MODEL CHANGE, ADD = STRAIN FREE 
E_STEP_28
*SFILM
RIGHT_11, F, 20, 0.0
*SRADIATE
RIGHT_11, R, 20, 0.0
*RESTART, WRITE, FREQUENCY = 0 
*OUTPUT, FIELD, VARIABLE = PRESELECT, NUMBER INTERVAL = 1
*OUTPUT, HISTORY, VARIABLE = PRESELECT
*NODE OUTPUT, NSET = N2
U
*END STEP

*STEP,NAME = STEP_29, INC= 20000, NLGEOM = YES
*COUPLED TEMPERATURE-DISPLACEMENT,DELTMX = 10., CETOL= 1e-3
0.01, 48.49000000000001, 1e-9, 48.49000000000001
**SOLUTION TECHNIQUE, TYPE = SEPARATED
*BOUNDARY, TYPE = DISPLACEMENT
BUILD_PLATE, 1, 1 
BUILD_PLATE, 2, 2 
BUILD_PLATE, 3, 3 
*RESTART, WRITE, FREQUENCY = 0 
*OUTPUT, FIELD, VARIABLE = PRESELECT, NUMBER INTERVAL = 1
*OUTPUT, HISTORY, VARIABLE = PRESELECT
*NODE OUTPUT, NSET = N2
U
*END STEP

*STEP,NAME = STEP_30, INC= 20000, NLGEOM = YES
*COUPLED TEMPERATURE-DISPLACEMENT,DELTMX = 10., CETOL= 1e-3
0.01, 0.30000000000001137, 1e-9, 0.30000000000001137
**SOLUTION TECHNIQUE, TYPE = SEPARATED
*BOUNDARY, TYPE = DISPLACEMENT
BUILD_PLATE, 1, 1 
BUILD_PLATE, 2, 2 
BUILD_PLATE, 3, 3 
*RESTART, WRITE, FREQUENCY = 0 
*OUTPUT, FIELD, VARIABLE = PRESELECT, NUMBER INTERVAL = 1
*OUTPUT, HISTORY, VARIABLE = PRESELECT
*NODE OUTPUT, NSET = N2
U
*END STEP

*STEP,NAME = STEP_31, INC= 20000, NLGEOM = YES
*COUPLED TEMPERATURE-DISPLACEMENT,DELTMX = 10., CETOL= 1e-3
0.01, 0.30000000000001137, 1e-9, 0.30000000000001137
**SOLUTION TECHNIQUE, TYPE = SEPARATED
*BOUNDARY, TYPE = DISPLACEMENT
BUILD_PLATE, 1, 1 
BUILD_PLATE, 2, 2 
BUILD_PLATE, 3, 3 
*MODEL CHANGE, ADD = STRAIN FREE 
E_STEP_31
*SFILM
LEFT_28, F, 20, 0.0
*SRADIATE
LEFT_28, R, 20, 0.0
*RESTART, WRITE, FREQUENCY = 0 
*OUTPUT, FIELD, VARIABLE = PRESELECT, NUMBER INTERVAL = 1
*OUTPUT, HISTORY, VARIABLE = PRESELECT
*NODE OUTPUT, NSET = N2
U
*END STEP

*STEP,NAME = STEP_32, INC= 20000, NLGEOM = YES
*COUPLED TEMPERATURE-DISPLACEMENT,DELTMX = 10., CETOL= 1e-3
0.01, 0.29999999999998295, 1e-9, 0.29999999999998295
**SOLUTION TECHNIQUE, TYPE = SEPARATED
*BOUNDARY, TYPE = DISPLACEMENT
BUILD_PLATE, 1, 1 
BUILD_PLATE, 2, 2 
BUILD_PLATE, 3, 3 
*MODEL CHANGE, ADD = STRAIN FREE 
E_STEP_32
*SFILM
LEFT_27, F, 20, 0.0
*SRADIATE
LEFT_27, R, 20, 0.0
*RESTART, WRITE, FREQUENCY = 0 
*OUTPUT, FIELD, VARIABLE = PRESELECT, NUMBER INTERVAL = 1
*OUTPUT, HISTORY, VARIABLE = PRESELECT
*NODE OUTPUT, NSET = N2
U
*END STEP

*STEP,NAME = STEP_33, INC= 20000, NLGEOM = YES
*COUPLED TEMPERATURE-DISPLACEMENT,DELTMX = 10., CETOL= 1e-3
0.01, 0.30000000000001137, 1e-9, 0.30000000000001137
**SOLUTION TECHNIQUE, TYPE = SEPARATED
*BOUNDARY, TYPE = DISPLACEMENT
BUILD_PLATE, 1, 1 
BUILD_PLATE, 2, 2 
BUILD_PLATE, 3, 3 
*MODEL CHANGE, ADD = STRAIN FREE 
E_STEP_33
*SFILM
LEFT_26, F, 20, 0.0
*SRADIATE
LEFT_26, R, 20, 0.0
*RESTART, WRITE, FREQUENCY = 0 
*OUTPUT, FIELD, VARIABLE = PRESELECT, NUMBER INTERVAL = 1
*OUTPUT, HISTORY, VARIABLE = PRESELECT
*NODE OUTPUT, NSET = N2
U
*END STEP

*STEP,NAME = STEP_34, INC= 20000, NLGEOM = YES
*COUPLED TEMPERATURE-DISPLACEMENT,DELTMX = 10., CETOL= 1e-3
0.01, 0.30000000000001137, 1e-9, 0.30000000000001137
**SOLUTION TECHNIQUE, TYPE = SEPARATED
*BOUNDARY, TYPE = DISPLACEMENT
BUILD_PLATE, 1, 1 
BUILD_PLATE, 2, 2 
BUILD_PLATE, 3, 3 
*MODEL CHANGE, ADD = STRAIN FREE 
E_STEP_34
*SFILM
LEFT_25, F, 20, 0.0
*SRADIATE
LEFT_25, R, 20, 0.0
*RESTART, WRITE, FREQUENCY = 0 
*OUTPUT, FIELD, VARIABLE = PRESELECT, NUMBER INTERVAL = 1
*OUTPUT, HISTORY, VARIABLE = PRESELECT
*NODE OUTPUT, NSET = N2
U
*END STEP

*STEP,NAME = STEP_35, INC= 20000, NLGEOM = YES
*COUPLED TEMPERATURE-DISPLACEMENT,DELTMX = 10., CETOL= 1e-3
0.01, 0.29999999999998295, 1e-9, 0.29999999999998295
**SOLUTION TECHNIQUE, TYPE = SEPARATED
*BOUNDARY, TYPE = DISPLACEMENT
BUILD_PLATE, 1, 1 
BUILD_PLATE, 2, 2 
BUILD_PLATE, 3, 3 
*MODEL CHANGE, ADD = STRAIN FREE 
E_STEP_35
*SFILM
LEFT_24, F, 20, 0.0
*SRADIATE
LEFT_24, R, 20, 0.0
*RESTART, WRITE, FREQUENCY = 0 
*OUTPUT, FIELD, VARIABLE = PRESELECT, NUMBER INTERVAL = 1
*OUTPUT, HISTORY, VARIABLE = PRESELECT
*NODE OUTPUT, NSET = N2
U
*END STEP

*STEP,NAME = STEP_36, INC= 20000, NLGEOM = YES
*COUPLED TEMPERATURE-DISPLACEMENT,DELTMX = 10., CETOL= 1e-3
0.01, 0.30000000000001137, 1e-9, 0.30000000000001137
**SOLUTION TECHNIQUE, TYPE = SEPARATED
*BOUNDARY, TYPE = DISPLACEMENT
BUILD_PLATE, 1, 1 
BUILD_PLATE, 2, 2 
BUILD_PLATE, 3, 3 
*MODEL CHANGE, ADD = STRAIN FREE 
E_STEP_36
*SFILM
LEFT_23, F, 20, 0.0
*SRADIATE
LEFT_23, R, 20, 0.0
*RESTART, WRITE, FREQUENCY = 0 
*OUTPUT, FIELD, VARIABLE = PRESELECT, NUMBER INTERVAL = 1
*OUTPUT, HISTORY, VARIABLE = PRESELECT
*NODE OUTPUT, NSET = N2
U
*END STEP

*STEP,NAME = STEP_37, INC= 20000, NLGEOM = YES
*COUPLED TEMPERATURE-DISPLACEMENT,DELTMX = 10., CETOL= 1e-3
0.01, 0.29999999999998295, 1e-9, 0.29999999999998295
**SOLUTION TECHNIQUE, TYPE = SEPARATED
*BOUNDARY, TYPE = DISPLACEMENT
BUILD_PLATE, 1, 1 
BUILD_PLATE, 2, 2 
BUILD_PLATE, 3, 3 
*MODEL CHANGE, ADD = STRAIN FREE 
E_STEP_37
*SFILM
LEFT_22, F, 20, 0.0
*SRADIATE
LEFT_22, R, 20, 0.0
*RESTART, WRITE, FREQUENCY = 0 
*OUTPUT, FIELD, VARIABLE = PRESELECT, NUMBER INTERVAL = 1
*OUTPUT, HISTORY, VARIABLE = PRESELECT
*NODE OUTPUT, NSET = N2
U
*END STEP

*STEP,NAME = STEP_38, INC= 20000, NLGEOM = YES
*COUPLED TEMPERATURE-DISPLACEMENT,DELTMX = 10., CETOL= 1e-3
0.01, 0.30000000000001137, 1e-9, 0.30000000000001137
**SOLUTION TECHNIQUE, TYPE = SEPARATED
*BOUNDARY, TYPE = DISPLACEMENT
BUILD_PLATE, 1, 1 
BUILD_PLATE, 2, 2 
BUILD_PLATE, 3, 3 
*MODEL CHANGE, ADD = STRAIN FREE 
E_STEP_38
*SFILM
LEFT_21, F, 20, 0.0
*SRADIATE
LEFT_21, R, 20, 0.0
*RESTART, WRITE, FREQUENCY = 0 
*OUTPUT, FIELD, VARIABLE = PRESELECT, NUMBER INTERVAL = 1
*OUTPUT, HISTORY, VARIABLE = PRESELECT
*NODE OUTPUT, NSET = N2
U
*END STEP

*STEP,NAME = STEP_39, INC= 20000, NLGEOM = YES
*COUPLED TEMPERATURE-DISPLACEMENT,DELTMX = 10., CETOL= 1e-3
0.01, 48.49000000000001, 1e-9, 48.49000000000001
**SOLUTION TECHNIQUE, TYPE = SEPARATED
*BOUNDARY, TYPE = DISPLACEMENT
BUILD_PLATE, 1, 1 
BUILD_PLATE, 2, 2 
BUILD_PLATE, 3, 3 
*RESTART, WRITE, FREQUENCY = 0 
*OUTPUT, FIELD, VARIABLE = PRESELECT, NUMBER INTERVAL = 1
*OUTPUT, HISTORY, VARIABLE = PRESELECT
*NODE OUTPUT, NSET = N2
U
*END STEP

*STEP,NAME = STEP_40, INC= 20000, NLGEOM = YES
*COUPLED TEMPERATURE-DISPLACEMENT,DELTMX = 10., CETOL= 1e-3
0.01, 1.5369316876852963, 1e-9, 1.5369316876852963
**SOLUTION TECHNIQUE, TYPE = SEPARATED
*BOUNDARY, TYPE = DISPLACEMENT
BUILD_PLATE, 1, 1 
BUILD_PLATE, 2, 2 
BUILD_PLATE, 3, 3 
*RESTART, WRITE, FREQUENCY = 0 
*OUTPUT, FIELD, VARIABLE = PRESELECT, NUMBER INTERVAL = 1
*OUTPUT, HISTORY, VARIABLE = PRESELECT
*NODE OUTPUT, NSET = N2
U
*END STEP

*STEP,NAME = STEP_41, INC= 20000, NLGEOM = YES
*COUPLED TEMPERATURE-DISPLACEMENT,DELTMX = 10., CETOL= 1e-3
0.01, 0.30000000000001137, 1e-9, 0.30000000000001137
**SOLUTION TECHNIQUE, TYPE = SEPARATED
*BOUNDARY, TYPE = DISPLACEMENT
BUILD_PLATE, 1, 1 
BUILD_PLATE, 2, 2 
BUILD_PLATE, 3, 3 
*MODEL CHANGE, ADD = STRAIN FREE 
E_STEP_41
*SFILM
UP_1, F, 20, 0.0
*SRADIATE
UP_1, R, 20, 0.0
*RESTART, WRITE, FREQUENCY = 0 
*OUTPUT, FIELD, VARIABLE = PRESELECT, NUMBER INTERVAL = 1
*OUTPUT, HISTORY, VARIABLE = PRESELECT
*NODE OUTPUT, NSET = N2
U
*END STEP

*STEP,NAME = STEP_42, INC= 20000, NLGEOM = YES
*COUPLED TEMPERATURE-DISPLACEMENT,DELTMX = 10., CETOL= 1e-3
0.01, 0.29999999999998295, 1e-9, 0.29999999999998295
**SOLUTION TECHNIQUE, TYPE = SEPARATED
*BOUNDARY, TYPE = DISPLACEMENT
BUILD_PLATE, 1, 1 
BUILD_PLATE, 2, 2 
BUILD_PLATE, 3, 3 
*MODEL CHANGE, ADD = STRAIN FREE 
E_STEP_42
*SFILM
UP_2, F, 20, 0.0
*SRADIATE
UP_2, R, 20, 0.0
*RESTART, WRITE, FREQUENCY = 0 
*OUTPUT, FIELD, VARIABLE = PRESELECT, NUMBER INTERVAL = 1
*OUTPUT, HISTORY, VARIABLE = PRESELECT
*NODE OUTPUT, NSET = N2
U
*END STEP

*STEP,NAME = STEP_43, INC= 20000, NLGEOM = YES
*COUPLED TEMPERATURE-DISPLACEMENT,DELTMX = 10., CETOL= 1e-3
0.01, 0.30000000000001137, 1e-9, 0.30000000000001137
**SOLUTION TECHNIQUE, TYPE = SEPARATED
*BOUNDARY, TYPE = DISPLACEMENT
BUILD_PLATE, 1, 1 
BUILD_PLATE, 2, 2 
BUILD_PLATE, 3, 3 
*MODEL CHANGE, ADD = STRAIN FREE 
E_STEP_43
*SFILM
UP_3, F, 20, 0.0
*SRADIATE
UP_3, R, 20, 0.0
*RESTART, WRITE, FREQUENCY = 0 
*OUTPUT, FIELD, VARIABLE = PRESELECT, NUMBER INTERVAL = 1
*OUTPUT, HISTORY, VARIABLE = PRESELECT
*NODE OUTPUT, NSET = N2
U
*END STEP

*STEP,NAME = STEP_44, INC= 20000, NLGEOM = YES
*COUPLED TEMPERATURE-DISPLACEMENT,DELTMX = 10., CETOL= 1e-3
0.01, 0.29999999999998295, 1e-9, 0.29999999999998295
**SOLUTION TECHNIQUE, TYPE = SEPARATED
*BOUNDARY, TYPE = DISPLACEMENT
BUILD_PLATE, 1, 1 
BUILD_PLATE, 2, 2 
BUILD_PLATE, 3, 3 
*MODEL CHANGE, ADD = STRAIN FREE 
E_STEP_44
*SFILM
UP_4, F, 20, 0.0
*SRADIATE
UP_4, R, 20, 0.0
*RESTART, WRITE, FREQUENCY = 0 
*OUTPUT, FIELD, VARIABLE = PRESELECT, NUMBER INTERVAL = 1
*OUTPUT, HISTORY, VARIABLE = PRESELECT
*NODE OUTPUT, NSET = N2
U
*END STEP

*STEP,NAME = STEP_45, INC= 20000, NLGEOM = YES
*COUPLED TEMPERATURE-DISPLACEMENT,DELTMX = 10., CETOL= 1e-3
0.01, 0.30000000000001137, 1e-9, 0.30000000000001137
**SOLUTION TECHNIQUE, TYPE = SEPARATED
*BOUNDARY, TYPE = DISPLACEMENT
BUILD_PLATE, 1, 1 
BUILD_PLATE, 2, 2 
BUILD_PLATE, 3, 3 
*MODEL CHANGE, ADD = STRAIN FREE 
E_STEP_45
*SFILM
UP_5, F, 20, 0.0
*SRADIATE
UP_5, R, 20, 0.0
*RESTART, WRITE, FREQUENCY = 0 
*OUTPUT, FIELD, VARIABLE = PRESELECT, NUMBER INTERVAL = 1
*OUTPUT, HISTORY, VARIABLE = PRESELECT
*NODE OUTPUT, NSET = N2
U
*END STEP

*STEP,NAME = STEP_46, INC= 20000, NLGEOM = YES
*COUPLED TEMPERATURE-DISPLACEMENT,DELTMX = 10., CETOL= 1e-3
0.01, 0.30000000000001137, 1e-9, 0.30000000000001137
**SOLUTION TECHNIQUE, TYPE = SEPARATED
*BOUNDARY, TYPE = DISPLACEMENT
BUILD_PLATE, 1, 1 
BUILD_PLATE, 2, 2 
BUILD_PLATE, 3, 3 
*MODEL CHANGE, ADD = STRAIN FREE 
E_STEP_46
*SFILM
UP_6, F, 20, 0.0
*SRADIATE
UP_6, R, 20, 0.0
*RESTART, WRITE, FREQUENCY = 0 
*OUTPUT, FIELD, VARIABLE = PRESELECT, NUMBER INTERVAL = 1
*OUTPUT, HISTORY, VARIABLE = PRESELECT
*NODE OUTPUT, NSET = N2
U
*END STEP

*STEP,NAME = STEP_47, INC= 20000, NLGEOM = YES
*COUPLED TEMPERATURE-DISPLACEMENT,DELTMX = 10., CETOL= 1e-3
0.01, 0.29999999999998295, 1e-9, 0.29999999999998295
**SOLUTION TECHNIQUE, TYPE = SEPARATED
*BOUNDARY, TYPE = DISPLACEMENT
BUILD_PLATE, 1, 1 
BUILD_PLATE, 2, 2 
BUILD_PLATE, 3, 3 
*MODEL CHANGE, ADD = STRAIN FREE 
E_STEP_47
*SFILM
UP_7, F, 20, 0.0
*SRADIATE
UP_7, R, 20, 0.0
*RESTART, WRITE, FREQUENCY = 0 
*OUTPUT, FIELD, VARIABLE = PRESELECT, NUMBER INTERVAL = 1
*OUTPUT, HISTORY, VARIABLE = PRESELECT
*NODE OUTPUT, NSET = N2
U
*END STEP

*STEP,NAME = STEP_48, INC= 20000, NLGEOM = YES
*COUPLED TEMPERATURE-DISPLACEMENT,DELTMX = 10., CETOL= 1e-3
0.01, 0.30000000000001137, 1e-9, 0.30000000000001137
**SOLUTION TECHNIQUE, TYPE = SEPARATED
*BOUNDARY, TYPE = DISPLACEMENT
BUILD_PLATE, 1, 1 
BUILD_PLATE, 2, 2 
BUILD_PLATE, 3, 3 
*MODEL CHANGE, ADD = STRAIN FREE 
E_STEP_48
*SFILM
UP_8, F, 20, 0.0
*SRADIATE
UP_8, R, 20, 0.0
*RESTART, WRITE, FREQUENCY = 0 
*OUTPUT, FIELD, VARIABLE = PRESELECT, NUMBER INTERVAL = 1
*OUTPUT, HISTORY, VARIABLE = PRESELECT
*NODE OUTPUT, NSET = N2
U
*END STEP

*STEP,NAME = STEP_49, INC= 20000, NLGEOM = YES
*COUPLED TEMPERATURE-DISPLACEMENT,DELTMX = 10., CETOL= 1e-3
0.01, 48.48999999999998, 1e-9, 48.48999999999998
**SOLUTION TECHNIQUE, TYPE = SEPARATED
*BOUNDARY, TYPE = DISPLACEMENT
BUILD_PLATE, 1, 1 
BUILD_PLATE, 2, 2 
BUILD_PLATE, 3, 3 
*RESTART, WRITE, FREQUENCY = 0 
*OUTPUT, FIELD, VARIABLE = PRESELECT, NUMBER INTERVAL = 1
*OUTPUT, HISTORY, VARIABLE = PRESELECT
*NODE OUTPUT, NSET = N2
U
*END STEP

*STEP,NAME = STEP_50, INC= 20000, NLGEOM = YES
*COUPLED TEMPERATURE-DISPLACEMENT,DELTMX = 10., CETOL= 1e-3
0.01, 0.30000000000001137, 1e-9, 0.30000000000001137
**SOLUTION TECHNIQUE, TYPE = SEPARATED
*BOUNDARY, TYPE = DISPLACEMENT
BUILD_PLATE, 1, 1 
BUILD_PLATE, 2, 2 
BUILD_PLATE, 3, 3 
*RESTART, WRITE, FREQUENCY = 0 
*OUTPUT, FIELD, VARIABLE = PRESELECT, NUMBER INTERVAL = 1
*OUTPUT, HISTORY, VARIABLE = PRESELECT
*NODE OUTPUT, NSET = N2
U
*END STEP

*STEP,NAME = STEP_51, INC= 20000, NLGEOM = YES
*COUPLED TEMPERATURE-DISPLACEMENT,DELTMX = 10., CETOL= 1e-3
0.01, 0.30000000000001137, 1e-9, 0.30000000000001137
**SOLUTION TECHNIQUE, TYPE = SEPARATED
*BOUNDARY, TYPE = DISPLACEMENT
BUILD_PLATE, 1, 1 
BUILD_PLATE, 2, 2 
BUILD_PLATE, 3, 3 
*MODEL CHANGE, ADD = STRAIN FREE 
E_STEP_51
*SFILM
UP_11, F, 20, 0.0
*SRADIATE
UP_11, R, 20, 0.0
*SFILM
LEFT_48, F, 20, 0.0
*SRADIATE
LEFT_48, R, 20, 0.0
*RESTART, WRITE, FREQUENCY = 0 
*OUTPUT, FIELD, VARIABLE = PRESELECT, NUMBER INTERVAL = 1
*OUTPUT, HISTORY, VARIABLE = PRESELECT
*NODE OUTPUT, NSET = N2
U
*END STEP

*STEP,NAME = STEP_52, INC= 20000, NLGEOM = YES
*COUPLED TEMPERATURE-DISPLACEMENT,DELTMX = 10., CETOL= 1e-3
0.01, 0.2999999999999545, 1e-9, 0.2999999999999545
**SOLUTION TECHNIQUE, TYPE = SEPARATED
*BOUNDARY, TYPE = DISPLACEMENT
BUILD_PLATE, 1, 1 
BUILD_PLATE, 2, 2 
BUILD_PLATE, 3, 3 
*MODEL CHANGE, ADD = STRAIN FREE 
E_STEP_52
*SFILM
UP_12, F, 20, 0.0
*SRADIATE
UP_12, R, 20, 0.0
*SFILM
LEFT_47, F, 20, 0.0
*SRADIATE
LEFT_47, R, 20, 0.0
*RESTART, WRITE, FREQUENCY = 0 
*OUTPUT, FIELD, VARIABLE = PRESELECT, NUMBER INTERVAL = 1
*OUTPUT, HISTORY, VARIABLE = PRESELECT
*NODE OUTPUT, NSET = N2
U
*END STEP

*STEP,NAME = STEP_53, INC= 20000, NLGEOM = YES
*COUPLED TEMPERATURE-DISPLACEMENT,DELTMX = 10., CETOL= 1e-3
0.01, 0.30000000000001137, 1e-9, 0.30000000000001137
**SOLUTION TECHNIQUE, TYPE = SEPARATED
*BOUNDARY, TYPE = DISPLACEMENT
BUILD_PLATE, 1, 1 
BUILD_PLATE, 2, 2 
BUILD_PLATE, 3, 3 
*MODEL CHANGE, ADD = STRAIN FREE 
E_STEP_53
*SFILM
UP_13, F, 20, 0.0
*SRADIATE
UP_13, R, 20, 0.0
*SFILM
LEFT_46, F, 20, 0.0
*SRADIATE
LEFT_46, R, 20, 0.0
*RESTART, WRITE, FREQUENCY = 0 
*OUTPUT, FIELD, VARIABLE = PRESELECT, NUMBER INTERVAL = 1
*OUTPUT, HISTORY, VARIABLE = PRESELECT
*NODE OUTPUT, NSET = N2
U
*END STEP

*STEP,NAME = STEP_54, INC= 20000, NLGEOM = YES
*COUPLED TEMPERATURE-DISPLACEMENT,DELTMX = 10., CETOL= 1e-3
0.01, 0.30000000000001137, 1e-9, 0.30000000000001137
**SOLUTION TECHNIQUE, TYPE = SEPARATED
*BOUNDARY, TYPE = DISPLACEMENT
BUILD_PLATE, 1, 1 
BUILD_PLATE, 2, 2 
BUILD_PLATE, 3, 3 
*MODEL CHANGE, ADD = STRAIN FREE 
E_STEP_54
*SFILM
UP_14, F, 20, 0.0
*SRADIATE
UP_14, R, 20, 0.0
*SFILM
LEFT_45, F, 20, 0.0
*SRADIATE
LEFT_45, R, 20, 0.0
*RESTART, WRITE, FREQUENCY = 0 
*OUTPUT, FIELD, VARIABLE = PRESELECT, NUMBER INTERVAL = 1
*OUTPUT, HISTORY, VARIABLE = PRESELECT
*NODE OUTPUT, NSET = N2
U
*END STEP

*STEP,NAME = STEP_55, INC= 20000, NLGEOM = YES
*COUPLED TEMPERATURE-DISPLACEMENT,DELTMX = 10., CETOL= 1e-3
0.01, 0.30000000000001137, 1e-9, 0.30000000000001137
**SOLUTION TECHNIQUE, TYPE = SEPARATED
*BOUNDARY, TYPE = DISPLACEMENT
BUILD_PLATE, 1, 1 
BUILD_PLATE, 2, 2 
BUILD_PLATE, 3, 3 
*MODEL CHANGE, ADD = STRAIN FREE 
E_STEP_55
*SFILM
UP_15, F, 20, 0.0
*SRADIATE
UP_15, R, 20, 0.0
*SFILM
LEFT_44, F, 20, 0.0
*SRADIATE
LEFT_44, R, 20, 0.0
*RESTART, WRITE, FREQUENCY = 0 
*OUTPUT, FIELD, VARIABLE = PRESELECT, NUMBER INTERVAL = 1
*OUTPUT, HISTORY, VARIABLE = PRESELECT
*NODE OUTPUT, NSET = N2
U
*END STEP

*STEP,NAME = STEP_56, INC= 20000, NLGEOM = YES
*COUPLED TEMPERATURE-DISPLACEMENT,DELTMX = 10., CETOL= 1e-3
0.01, 0.30000000000001137, 1e-9, 0.30000000000001137
**SOLUTION TECHNIQUE, TYPE = SEPARATED
*BOUNDARY, TYPE = DISPLACEMENT
BUILD_PLATE, 1, 1 
BUILD_PLATE, 2, 2 
BUILD_PLATE, 3, 3 
*MODEL CHANGE, ADD = STRAIN FREE 
E_STEP_56
*SFILM
UP_16, F, 20, 0.0
*SRADIATE
UP_16, R, 20, 0.0
*SFILM
LEFT_43, F, 20, 0.0
*SRADIATE
LEFT_43, R, 20, 0.0
*RESTART, WRITE, FREQUENCY = 0 
*OUTPUT, FIELD, VARIABLE = PRESELECT, NUMBER INTERVAL = 1
*OUTPUT, HISTORY, VARIABLE = PRESELECT
*NODE OUTPUT, NSET = N2
U
*END STEP

*STEP,NAME = STEP_57, INC= 20000, NLGEOM = YES
*COUPLED TEMPERATURE-DISPLACEMENT,DELTMX = 10., CETOL= 1e-3
0.01, 0.2999999999999545, 1e-9, 0.2999999999999545
**SOLUTION TECHNIQUE, TYPE = SEPARATED
*BOUNDARY, TYPE = DISPLACEMENT
BUILD_PLATE, 1, 1 
BUILD_PLATE, 2, 2 
BUILD_PLATE, 3, 3 
*MODEL CHANGE, ADD = STRAIN FREE 
E_STEP_57
*SFILM
UP_17, F, 20, 0.0
*SRADIATE
UP_17, R, 20, 0.0
*SFILM
LEFT_42, F, 20, 0.0
*SRADIATE
LEFT_42, R, 20, 0.0
*RESTART, WRITE, FREQUENCY = 0 
*OUTPUT, FIELD, VARIABLE = PRESELECT, NUMBER INTERVAL = 1
*OUTPUT, HISTORY, VARIABLE = PRESELECT
*NODE OUTPUT, NSET = N2
U
*END STEP

*STEP,NAME = STEP_58, INC= 20000, NLGEOM = YES
*COUPLED TEMPERATURE-DISPLACEMENT,DELTMX = 10., CETOL= 1e-3
0.01, 0.30000000000001137, 1e-9, 0.30000000000001137
**SOLUTION TECHNIQUE, TYPE = SEPARATED
*BOUNDARY, TYPE = DISPLACEMENT
BUILD_PLATE, 1, 1 
BUILD_PLATE, 2, 2 
BUILD_PLATE, 3, 3 
*MODEL CHANGE, ADD = STRAIN FREE 
E_STEP_58
*SFILM
UP_18, F, 20, 0.0
*SRADIATE
UP_18, R, 20, 0.0
*SFILM
LEFT_41, F, 20, 0.0
*SRADIATE
LEFT_41, R, 20, 0.0
*RESTART, WRITE, FREQUENCY = 0 
*OUTPUT, FIELD, VARIABLE = PRESELECT, NUMBER INTERVAL = 1
*OUTPUT, HISTORY, VARIABLE = PRESELECT
*NODE OUTPUT, NSET = N2
U
*END STEP

*STEP,NAME = STEP_59, INC= 20000, NLGEOM = YES
*COUPLED TEMPERATURE-DISPLACEMENT,DELTMX = 10., CETOL= 1e-3
0.01, 48.49000000000001, 1e-9, 48.49000000000001
**SOLUTION TECHNIQUE, TYPE = SEPARATED
*BOUNDARY, TYPE = DISPLACEMENT
BUILD_PLATE, 1, 1 
BUILD_PLATE, 2, 2 
BUILD_PLATE, 3, 3 
*RESTART, WRITE, FREQUENCY = 0 
*OUTPUT, FIELD, VARIABLE = PRESELECT, NUMBER INTERVAL = 1
*OUTPUT, HISTORY, VARIABLE = PRESELECT
*NODE OUTPUT, NSET = N2
U
*END STEP

*STEP,NAME = STEP_60, INC= 20000, NLGEOM = YES
*COUPLED TEMPERATURE-DISPLACEMENT,DELTMX = 10., CETOL= 1e-3
0.01, 0.30000000000001137, 1e-9, 0.30000000000001137
**SOLUTION TECHNIQUE, TYPE = SEPARATED
*BOUNDARY, TYPE = DISPLACEMENT
BUILD_PLATE, 1, 1 
BUILD_PLATE, 2, 2 
BUILD_PLATE, 3, 3 
*RESTART, WRITE, FREQUENCY = 0 
*OUTPUT, FIELD, VARIABLE = PRESELECT, NUMBER INTERVAL = 1
*OUTPUT, HISTORY, VARIABLE = PRESELECT
*NODE OUTPUT, NSET = N2
U
*END STEP

*STEP,NAME = STEP_61, INC= 20000, NLGEOM = YES
*COUPLED TEMPERATURE-DISPLACEMENT,DELTMX = 10., CETOL= 1e-3
0.01, 0.30000000000001137, 1e-9, 0.30000000000001137
**SOLUTION TECHNIQUE, TYPE = SEPARATED
*BOUNDARY, TYPE = DISPLACEMENT
BUILD_PLATE, 1, 1 
BUILD_PLATE, 2, 2 
BUILD_PLATE, 3, 3 
*MODEL CHANGE, ADD = STRAIN FREE 
E_STEP_61
*SFILM
UP_21, F, 20, 0.0
*SRADIATE
UP_21, R, 20, 0.0
*SFILM
RIGHT_58, F, 20, 0.0
*SRADIATE
RIGHT_58, R, 20, 0.0
*RESTART, WRITE, FREQUENCY = 0 
*OUTPUT, FIELD, VARIABLE = PRESELECT, NUMBER INTERVAL = 1
*OUTPUT, HISTORY, VARIABLE = PRESELECT
*NODE OUTPUT, NSET = N2
U
*END STEP

*STEP,NAME = STEP_62, INC= 20000, NLGEOM = YES
*COUPLED TEMPERATURE-DISPLACEMENT,DELTMX = 10., CETOL= 1e-3
0.01, 0.30000000000001137, 1e-9, 0.30000000000001137
**SOLUTION TECHNIQUE, TYPE = SEPARATED
*BOUNDARY, TYPE = DISPLACEMENT
BUILD_PLATE, 1, 1 
BUILD_PLATE, 2, 2 
BUILD_PLATE, 3, 3 
*MODEL CHANGE, ADD = STRAIN FREE 
E_STEP_62
*SFILM
UP_22, F, 20, 0.0
*SRADIATE
UP_22, R, 20, 0.0
*SFILM
RIGHT_57, F, 20, 0.0
*SRADIATE
RIGHT_57, R, 20, 0.0
*RESTART, WRITE, FREQUENCY = 0 
*OUTPUT, FIELD, VARIABLE = PRESELECT, NUMBER INTERVAL = 1
*OUTPUT, HISTORY, VARIABLE = PRESELECT
*NODE OUTPUT, NSET = N2
U
*END STEP

*STEP,NAME = STEP_63, INC= 20000, NLGEOM = YES
*COUPLED TEMPERATURE-DISPLACEMENT,DELTMX = 10., CETOL= 1e-3
0.01, 0.2999999999999545, 1e-9, 0.2999999999999545
**SOLUTION TECHNIQUE, TYPE = SEPARATED
*BOUNDARY, TYPE = DISPLACEMENT
BUILD_PLATE, 1, 1 
BUILD_PLATE, 2, 2 
BUILD_PLATE, 3, 3 
*MODEL CHANGE, ADD = STRAIN FREE 
E_STEP_63
*SFILM
UP_23, F, 20, 0.0
*SRADIATE
UP_23, R, 20, 0.0
*SFILM
RIGHT_56, F, 20, 0.0
*SRADIATE
RIGHT_56, R, 20, 0.0
*RESTART, WRITE, FREQUENCY = 0 
*OUTPUT, FIELD, VARIABLE = PRESELECT, NUMBER INTERVAL = 1
*OUTPUT, HISTORY, VARIABLE = PRESELECT
*NODE OUTPUT, NSET = N2
U
*END STEP

*STEP,NAME = STEP_64, INC= 20000, NLGEOM = YES
*COUPLED TEMPERATURE-DISPLACEMENT,DELTMX = 10., CETOL= 1e-3
0.01, 0.30000000000001137, 1e-9, 0.30000000000001137
**SOLUTION TECHNIQUE, TYPE = SEPARATED
*BOUNDARY, TYPE = DISPLACEMENT
BUILD_PLATE, 1, 1 
BUILD_PLATE, 2, 2 
BUILD_PLATE, 3, 3 
*MODEL CHANGE, ADD = STRAIN FREE 
E_STEP_64
*SFILM
UP_24, F, 20, 0.0
*SRADIATE
UP_24, R, 20, 0.0
*SFILM
RIGHT_55, F, 20, 0.0
*SRADIATE
RIGHT_55, R, 20, 0.0
*RESTART, WRITE, FREQUENCY = 0 
*OUTPUT, FIELD, VARIABLE = PRESELECT, NUMBER INTERVAL = 1
*OUTPUT, HISTORY, VARIABLE = PRESELECT
*NODE OUTPUT, NSET = N2
U
*END STEP

*STEP,NAME = STEP_65, INC= 20000, NLGEOM = YES
*COUPLED TEMPERATURE-DISPLACEMENT,DELTMX = 10., CETOL= 1e-3
0.01, 0.30000000000001137, 1e-9, 0.30000000000001137
**SOLUTION TECHNIQUE, TYPE = SEPARATED
*BOUNDARY, TYPE = DISPLACEMENT
BUILD_PLATE, 1, 1 
BUILD_PLATE, 2, 2 
BUILD_PLATE, 3, 3 
*MODEL CHANGE, ADD = STRAIN FREE 
E_STEP_65
*SFILM
UP_25, F, 20, 0.0
*SRADIATE
UP_25, R, 20, 0.0
*SFILM
RIGHT_54, F, 20, 0.0
*SRADIATE
RIGHT_54, R, 20, 0.0
*RESTART, WRITE, FREQUENCY = 0 
*OUTPUT, FIELD, VARIABLE = PRESELECT, NUMBER INTERVAL = 1
*OUTPUT, HISTORY, VARIABLE = PRESELECT
*NODE OUTPUT, NSET = N2
U
*END STEP

*STEP,NAME = STEP_66, INC= 20000, NLGEOM = YES
*COUPLED TEMPERATURE-DISPLACEMENT,DELTMX = 10., CETOL= 1e-3
0.01, 0.2999999999999545, 1e-9, 0.2999999999999545
**SOLUTION TECHNIQUE, TYPE = SEPARATED
*BOUNDARY, TYPE = DISPLACEMENT
BUILD_PLATE, 1, 1 
BUILD_PLATE, 2, 2 
BUILD_PLATE, 3, 3 
*MODEL CHANGE, ADD = STRAIN FREE 
E_STEP_66
*SFILM
UP_26, F, 20, 0.0
*SRADIATE
UP_26, R, 20, 0.0
*SFILM
RIGHT_53, F, 20, 0.0
*SRADIATE
RIGHT_53, R, 20, 0.0
*RESTART, WRITE, FREQUENCY = 0 
*OUTPUT, FIELD, VARIABLE = PRESELECT, NUMBER INTERVAL = 1
*OUTPUT, HISTORY, VARIABLE = PRESELECT
*NODE OUTPUT, NSET = N2
U
*END STEP

*STEP,NAME = STEP_67, INC= 20000, NLGEOM = YES
*COUPLED TEMPERATURE-DISPLACEMENT,DELTMX = 10., CETOL= 1e-3
0.01, 0.30000000000001137, 1e-9, 0.30000000000001137
**SOLUTION TECHNIQUE, TYPE = SEPARATED
*BOUNDARY, TYPE = DISPLACEMENT
BUILD_PLATE, 1, 1 
BUILD_PLATE, 2, 2 
BUILD_PLATE, 3, 3 
*MODEL CHANGE, ADD = STRAIN FREE 
E_STEP_67
*SFILM
UP_27, F, 20, 0.0
*SRADIATE
UP_27, R, 20, 0.0
*SFILM
RIGHT_52, F, 20, 0.0
*SRADIATE
RIGHT_52, R, 20, 0.0
*RESTART, WRITE, FREQUENCY = 0 
*OUTPUT, FIELD, VARIABLE = PRESELECT, NUMBER INTERVAL = 1
*OUTPUT, HISTORY, VARIABLE = PRESELECT
*NODE OUTPUT, NSET = N2
U
*END STEP

*STEP,NAME = STEP_68, INC= 20000, NLGEOM = YES
*COUPLED TEMPERATURE-DISPLACEMENT,DELTMX = 10., CETOL= 1e-3
0.01, 0.30000000000001137, 1e-9, 0.30000000000001137
**SOLUTION TECHNIQUE, TYPE = SEPARATED
*BOUNDARY, TYPE = DISPLACEMENT
BUILD_PLATE, 1, 1 
BUILD_PLATE, 2, 2 
BUILD_PLATE, 3, 3 
*MODEL CHANGE, ADD = STRAIN FREE 
E_STEP_68
*SFILM
UP_28, F, 20, 0.0
*SRADIATE
UP_28, R, 20, 0.0
*SFILM
RIGHT_51, F, 20, 0.0
*SRADIATE
RIGHT_51, R, 20, 0.0
*RESTART, WRITE, FREQUENCY = 0 
*OUTPUT, FIELD, VARIABLE = PRESELECT, NUMBER INTERVAL = 1
*OUTPUT, HISTORY, VARIABLE = PRESELECT
*NODE OUTPUT, NSET = N2
U
*END STEP

*STEP,NAME = STEP_69, INC= 20000, NLGEOM = YES
*COUPLED TEMPERATURE-DISPLACEMENT,DELTMX = 10., CETOL= 1e-3
0.01, 48.49000000000001, 1e-9, 48.49000000000001
**SOLUTION TECHNIQUE, TYPE = SEPARATED
*BOUNDARY, TYPE = DISPLACEMENT
BUILD_PLATE, 1, 1 
BUILD_PLATE, 2, 2 
BUILD_PLATE, 3, 3 
*RESTART, WRITE, FREQUENCY = 0 
*OUTPUT, FIELD, VARIABLE = PRESELECT, NUMBER INTERVAL = 1
*OUTPUT, HISTORY, VARIABLE = PRESELECT
*NODE OUTPUT, NSET = N2
U
*END STEP

*STEP,NAME = STEP_70, INC= 20000, NLGEOM = YES
*COUPLED TEMPERATURE-DISPLACEMENT,DELTMX = 10., CETOL= 1e-3
0.01, 0.30000000000001137, 1e-9, 0.30000000000001137
**SOLUTION TECHNIQUE, TYPE = SEPARATED
*BOUNDARY, TYPE = DISPLACEMENT
BUILD_PLATE, 1, 1 
BUILD_PLATE, 2, 2 
BUILD_PLATE, 3, 3 
*RESTART, WRITE, FREQUENCY = 0 
*OUTPUT, FIELD, VARIABLE = PRESELECT, NUMBER INTERVAL = 1
*OUTPUT, HISTORY, VARIABLE = PRESELECT
*NODE OUTPUT, NSET = N2
U
*END STEP

*STEP,NAME = STEP_71, INC= 20000, NLGEOM = YES
*COUPLED TEMPERATURE-DISPLACEMENT,DELTMX = 10., CETOL= 1e-3
0.01, 0.30000000000001137, 1e-9, 0.30000000000001137
**SOLUTION TECHNIQUE, TYPE = SEPARATED
*BOUNDARY, TYPE = DISPLACEMENT
BUILD_PLATE, 1, 1 
BUILD_PLATE, 2, 2 
BUILD_PLATE, 3, 3 
*MODEL CHANGE, ADD = STRAIN FREE 
E_STEP_71
*SFILM
UP_31, F, 20, 0.0
*SRADIATE
UP_31, R, 20, 0.0
*SFILM
LEFT_68, F, 20, 0.0
*SRADIATE
LEFT_68, R, 20, 0.0
*RESTART, WRITE, FREQUENCY = 0 
*OUTPUT, FIELD, VARIABLE = PRESELECT, NUMBER INTERVAL = 1
*OUTPUT, HISTORY, VARIABLE = PRESELECT
*NODE OUTPUT, NSET = N2
U
*END STEP

*STEP,NAME = STEP_72, INC= 20000, NLGEOM = YES
*COUPLED TEMPERATURE-DISPLACEMENT,DELTMX = 10., CETOL= 1e-3
0.01, 0.2999999999999545, 1e-9, 0.2999999999999545
**SOLUTION TECHNIQUE, TYPE = SEPARATED
*BOUNDARY, TYPE = DISPLACEMENT
BUILD_PLATE, 1, 1 
BUILD_PLATE, 2, 2 
BUILD_PLATE, 3, 3 
*MODEL CHANGE, ADD = STRAIN FREE 
E_STEP_72
*SFILM
UP_32, F, 20, 0.0
*SRADIATE
UP_32, R, 20, 0.0
*SFILM
LEFT_67, F, 20, 0.0
*SRADIATE
LEFT_67, R, 20, 0.0
*RESTART, WRITE, FREQUENCY = 0 
*OUTPUT, FIELD, VARIABLE = PRESELECT, NUMBER INTERVAL = 1
*OUTPUT, HISTORY, VARIABLE = PRESELECT
*NODE OUTPUT, NSET = N2
U
*END STEP

*STEP,NAME = STEP_73, INC= 20000, NLGEOM = YES
*COUPLED TEMPERATURE-DISPLACEMENT,DELTMX = 10., CETOL= 1e-3
0.01, 0.30000000000001137, 1e-9, 0.30000000000001137
**SOLUTION TECHNIQUE, TYPE = SEPARATED
*BOUNDARY, TYPE = DISPLACEMENT
BUILD_PLATE, 1, 1 
BUILD_PLATE, 2, 2 
BUILD_PLATE, 3, 3 
*MODEL CHANGE, ADD = STRAIN FREE 
E_STEP_73
*SFILM
UP_33, F, 20, 0.0
*SRADIATE
UP_33, R, 20, 0.0
*SFILM
LEFT_66, F, 20, 0.0
*SRADIATE
LEFT_66, R, 20, 0.0
*RESTART, WRITE, FREQUENCY = 0 
*OUTPUT, FIELD, VARIABLE = PRESELECT, NUMBER INTERVAL = 1
*OUTPUT, HISTORY, VARIABLE = PRESELECT
*NODE OUTPUT, NSET = N2
U
*END STEP

*STEP,NAME = STEP_74, INC= 20000, NLGEOM = YES
*COUPLED TEMPERATURE-DISPLACEMENT,DELTMX = 10., CETOL= 1e-3
0.01, 0.30000000000001137, 1e-9, 0.30000000000001137
**SOLUTION TECHNIQUE, TYPE = SEPARATED
*BOUNDARY, TYPE = DISPLACEMENT
BUILD_PLATE, 1, 1 
BUILD_PLATE, 2, 2 
BUILD_PLATE, 3, 3 
*MODEL CHANGE, ADD = STRAIN FREE 
E_STEP_74
*SFILM
UP_34, F, 20, 0.0
*SRADIATE
UP_34, R, 20, 0.0
*SFILM
LEFT_65, F, 20, 0.0
*SRADIATE
LEFT_65, R, 20, 0.0
*RESTART, WRITE, FREQUENCY = 0 
*OUTPUT, FIELD, VARIABLE = PRESELECT, NUMBER INTERVAL = 1
*OUTPUT, HISTORY, VARIABLE = PRESELECT
*NODE OUTPUT, NSET = N2
U
*END STEP

*STEP,NAME = STEP_75, INC= 20000, NLGEOM = YES
*COUPLED TEMPERATURE-DISPLACEMENT,DELTMX = 10., CETOL= 1e-3
0.01, 0.30000000000001137, 1e-9, 0.30000000000001137
**SOLUTION TECHNIQUE, TYPE = SEPARATED
*BOUNDARY, TYPE = DISPLACEMENT
BUILD_PLATE, 1, 1 
BUILD_PLATE, 2, 2 
BUILD_PLATE, 3, 3 
*MODEL CHANGE, ADD = STRAIN FREE 
E_STEP_75
*SFILM
UP_35, F, 20, 0.0
*SRADIATE
UP_35, R, 20, 0.0
*SFILM
LEFT_64, F, 20, 0.0
*SRADIATE
LEFT_64, R, 20, 0.0
*RESTART, WRITE, FREQUENCY = 0 
*OUTPUT, FIELD, VARIABLE = PRESELECT, NUMBER INTERVAL = 1
*OUTPUT, HISTORY, VARIABLE = PRESELECT
*NODE OUTPUT, NSET = N2
U
*END STEP

*STEP,NAME = STEP_76, INC= 20000, NLGEOM = YES
*COUPLED TEMPERATURE-DISPLACEMENT,DELTMX = 10., CETOL= 1e-3
0.01, 0.30000000000001137, 1e-9, 0.30000000000001137
**SOLUTION TECHNIQUE, TYPE = SEPARATED
*BOUNDARY, TYPE = DISPLACEMENT
BUILD_PLATE, 1, 1 
BUILD_PLATE, 2, 2 
BUILD_PLATE, 3, 3 
*MODEL CHANGE, ADD = STRAIN FREE 
E_STEP_76
*SFILM
UP_36, F, 20, 0.0
*SRADIATE
UP_36, R, 20, 0.0
*SFILM
LEFT_63, F, 20, 0.0
*SRADIATE
LEFT_63, R, 20, 0.0
*RESTART, WRITE, FREQUENCY = 0 
*OUTPUT, FIELD, VARIABLE = PRESELECT, NUMBER INTERVAL = 1
*OUTPUT, HISTORY, VARIABLE = PRESELECT
*NODE OUTPUT, NSET = N2
U
*END STEP

*STEP,NAME = STEP_77, INC= 20000, NLGEOM = YES
*COUPLED TEMPERATURE-DISPLACEMENT,DELTMX = 10., CETOL= 1e-3
0.01, 0.2999999999999545, 1e-9, 0.2999999999999545
**SOLUTION TECHNIQUE, TYPE = SEPARATED
*BOUNDARY, TYPE = DISPLACEMENT
BUILD_PLATE, 1, 1 
BUILD_PLATE, 2, 2 
BUILD_PLATE, 3, 3 
*MODEL CHANGE, ADD = STRAIN FREE 
E_STEP_77
*SFILM
UP_37, F, 20, 0.0
*SRADIATE
UP_37, R, 20, 0.0
*SFILM
LEFT_62, F, 20, 0.0
*SRADIATE
LEFT_62, R, 20, 0.0
*RESTART, WRITE, FREQUENCY = 0 
*OUTPUT, FIELD, VARIABLE = PRESELECT, NUMBER INTERVAL = 1
*OUTPUT, HISTORY, VARIABLE = PRESELECT
*NODE OUTPUT, NSET = N2
U
*END STEP

*STEP,NAME = STEP_78, INC= 20000, NLGEOM = YES
*COUPLED TEMPERATURE-DISPLACEMENT,DELTMX = 10., CETOL= 1e-3
0.01, 0.30000000000001137, 1e-9, 0.30000000000001137
**SOLUTION TECHNIQUE, TYPE = SEPARATED
*BOUNDARY, TYPE = DISPLACEMENT
BUILD_PLATE, 1, 1 
BUILD_PLATE, 2, 2 
BUILD_PLATE, 3, 3 
*MODEL CHANGE, ADD = STRAIN FREE 
E_STEP_78
*SFILM
UP_38, F, 20, 0.0
*SRADIATE
UP_38, R, 20, 0.0
*SFILM
LEFT_61, F, 20, 0.0
*SRADIATE
LEFT_61, R, 20, 0.0
*RESTART, WRITE, FREQUENCY = 0 
*OUTPUT, FIELD, VARIABLE = PRESELECT, NUMBER INTERVAL = 1
*OUTPUT, HISTORY, VARIABLE = PRESELECT
*NODE OUTPUT, NSET = N2
U
*END STEP

*STEP,NAME = STEP_79, INC= 20000, NLGEOM = YES
*COUPLED TEMPERATURE-DISPLACEMENT,DELTMX = 10., CETOL= 1e-3
0.01, 48.49000000000001, 1e-9, 48.49000000000001
**SOLUTION TECHNIQUE, TYPE = SEPARATED
*BOUNDARY, TYPE = DISPLACEMENT
BUILD_PLATE, 1, 1 
BUILD_PLATE, 2, 2 
BUILD_PLATE, 3, 3 
*RESTART, WRITE, FREQUENCY = 0 
*OUTPUT, FIELD, VARIABLE = PRESELECT, NUMBER INTERVAL = 1
*OUTPUT, HISTORY, VARIABLE = PRESELECT
*NODE OUTPUT, NSET = N2
U
*END STEP

*STEP,NAME = STEP_80, INC= 20000, NLGEOM = YES
*COUPLED TEMPERATURE-DISPLACEMENT,DELTMX = 10., CETOL= 1e-3
0.01, 1.5369316876852963, 1e-9, 1.5369316876852963
**SOLUTION TECHNIQUE, TYPE = SEPARATED
*BOUNDARY, TYPE = DISPLACEMENT
BUILD_PLATE, 1, 1 
BUILD_PLATE, 2, 2 
BUILD_PLATE, 3, 3 
*RESTART, WRITE, FREQUENCY = 0 
*OUTPUT, FIELD, VARIABLE = PRESELECT, NUMBER INTERVAL = 1
*OUTPUT, HISTORY, VARIABLE = PRESELECT
*NODE OUTPUT, NSET = N2
U
*END STEP
** SERVICE LOADING OF THE PART **
*STEP,NAME = SERVICE, INC= 20000, NLGEOM = YES
*COUPLED TEMPERATURE-DISPLACEMENT,DELTMX = 10., CETOL= 1e-3
0, 60, 1e-9,60
**SOLUTION TECHNIQUE, TYPE = SEPARATED
*BOUNDARY, OP = NEW
1, 1, 1
1, 2, 2
1, 3, 3
2, 1, 1
2, 2, 2
2, 3, 3
8, 1, 1
8, 2, 2
8, 3, 3
ALLNODES, 11, 11, 20
*SFILM, OP = NEW
FREE_SURFACE, F, 20,67
*RESTART, WRITE, FREQUENCY = 0
*OUTPUT, FIELD, VARIABLE = PRESELECT
*OUTPUT, HISTORY, VARIABLE = PRESELECT
*NODE OUTPUT, NSET = N2
U
*END STEP
