**EXAMPLE FILE FOR THE WALL PRINTING OUTLINED IN COMPTON
**SPECIFY THE JOB NAME FOR THE INP FILES
@STRING@JOB_NAME="WALL_BAAM"
**G CODE FILE
@STRING@GCODE="wall.GCODE"
**@STRING@TEMPLATE='1BRICK'
**TIME STEPS FOR ELEMENTS AND STEPS
**NOZZLE HEAT METHOD 0 INITIAL TEMPERATURE 1 USE DFLUX
@DATA@flux=0
**TIME STEP FOR ELEMENT ACTIVATION
@DATA@del_t=40
**TIME STEP FOR PARTITIONING ELEMENTS
@DATA@el_step=30
**NATURAL CONVECTION COEFFICENT
@DATA@h_nat=8.5
**PART TO BUILD PLATE HEAT TRANSFER COEEFCENT
@DATA@h_plate=210
**BUILD PLATE TEMPERATURE
@DATA@plate_temp=65
**EXTRUDER TEMPERATRE 
@DATA@extruder_temp=275
**ENCLOSURE TEMPERATURE
@DATA@enclosure_temp=18
**EMISSIVITY OF MATERIEL
@DATA@emissivity=0.17
**BEAD DIMENSIONS for scaling the mesh template
@DATA@bead_width=.010
@DATA@bead_height=.004064
**OUTPUT NODES HERE
@NODES
**OUTPUT NODE SETS HERE
@N_SETS
**OUTPUT ELEMENTS HERE
@ELEMENTS
**OUTPUT ELEMENT SETS HERE
@EL_SETS
**OUTPUT SURFACES HERE
@SURFACES
**MATERIEL DEF
*PHYSICAL CONSTANTS, ABSOLUTE ZERO=-273.15, STEFAN BOLTZMAN=5.6703E-8
*Material, name=CFABS
*Conductivity
0.17
*Density
1140.,
*Elastic
2200e6., 0.4, 20
1100e6., 0.4, 100
*PLASTIC, HARDENING=ISOTROPIC
31e6, 0.0, 20
33e6, 0.05, 20
15.5e6, 0.0, 90
16.5e6, 0.05, 90
*Expansion
8.82e-05,
*Specific Heat
1640
*SOLID SECTION, ELSET=ALLELEMENTS, MATERIAL = CFABS
**OUTPUT STEPS HERE
@STEPS
**OUTPUT SERVICE LOADING STEP HERE
@SERVICE
